<?xml version="1.0" encoding="UTF-8"?>

<!-- generated on 2025-03-28 18:48:24 by Eclipse SUMO netedit Version 1.21.0
<neteditConfiguration xmlns:xsi="http://www.w3.org/2001/XMLSchema-instance" xsi:noNamespaceSchemaLocation="http://sumo.dlr.de/xsd/neteditConfiguration.xsd">

    <input>
        <sumo-net-file value="C:\Users\oriol\Documents\VIU\TFM\RL-TrafficFlow-BQN\data\network\2environment.net.xml"/>
    </input>

    <output>
        <output-file value="C:\Users\oriol\Documents\VIU\TFM\RL-TrafficFlow-BQN\data\network\2environment.net.xml"/>
    </output>

    <processing>
        <geometry.min-radius.fix.railways value="false"/>
        <geometry.max-grade.fix value="false"/>
        <offset.disable-normalization value="true"/>
        <lefthand value="0"/>
    </processing>

    <junctions>
        <no-turnarounds value="true"/>
        <junctions.corner-detail value="5"/>
        <junctions.limit-turn-speed value="5.50"/>
        <rectangular-lane-cut value="0"/>
    </junctions>

    <pedestrian>
        <walkingareas value="0"/>
    </pedestrian>

</neteditConfiguration>
-->

<net version="1.20" junctionCornerDetail="5" limitTurnSpeed="5.50" xmlns:xsi="http://www.w3.org/2001/XMLSchema-instance" xsi:noNamespaceSchemaLocation="http://sumo.dlr.de/xsd/net_file.xsd">

    <location netOffset="0.00,0.00" convBoundary="-750.00,-750.00,1500.00,750.00" origBoundary="-10000000000.00,-10000000000.00,10000000000.00,10000000000.00" projParameter="!"/>

    <edge id=":TL0_0" function="internal">
        <lane id=":TL0_0_0" index="0" speed="6.51" length="9.03" shape="-11.20,16.80 -11.55,14.35 -12.60,12.60 -14.35,11.55 -16.80,11.20"/>
    </edge>
    <edge id=":TL0_1" function="internal">
        <lane id=":TL0_1_0" index="0" speed="13.89" length="33.60" shape="-11.20,16.80 -11.20,-16.80"/>
        <lane id=":TL0_1_1" index="1" speed="13.89" length="33.60" shape="-8.00,16.80 -8.00,-16.80"/>
        <lane id=":TL0_1_2" index="2" speed="13.89" length="33.60" shape="-4.80,16.80 -4.80,-16.80"/>
    </edge>
    <edge id=":TL0_4" function="internal">
        <lane id=":TL0_4_0" index="0" speed="11.36" length="29.67" shape="-1.60,16.80 -0.45,8.75 3.00,3.00 8.75,-0.45 16.80,-1.60"/>
    </edge>
    <edge id=":TL0_5" function="internal">
        <lane id=":TL0_5_0" index="0" speed="6.51" length="9.03" shape="16.80,11.20 14.35,11.55 12.60,12.60 11.55,14.35 11.20,16.80"/>
    </edge>
    <edge id=":TL0_6" function="internal">
        <lane id=":TL0_6_0" index="0" speed="13.89" length="33.60" shape="16.80,11.20 -16.80,11.20"/>
        <lane id=":TL0_6_1" index="1" speed="13.89" length="33.60" shape="16.80,8.00 -16.80,8.00"/>
        <lane id=":TL0_6_2" index="2" speed="13.89" length="33.60" shape="16.80,4.80 -16.80,4.80"/>
    </edge>
    <edge id=":TL0_9" function="internal">
        <lane id=":TL0_9_0" index="0" speed="11.36" length="29.67" shape="16.80,1.60 8.75,0.45 3.00,-3.00 -0.45,-8.75 -1.60,-16.80"/>
    </edge>
    <edge id=":TL0_10" function="internal">
        <lane id=":TL0_10_0" index="0" speed="6.51" length="9.03" shape="11.20,-16.80 11.55,-14.35 12.60,-12.60 14.35,-11.55 16.80,-11.20"/>
    </edge>
    <edge id=":TL0_11" function="internal">
        <lane id=":TL0_11_0" index="0" speed="13.89" length="33.60" shape="11.20,-16.80 11.20,16.80"/>
        <lane id=":TL0_11_1" index="1" speed="13.89" length="33.60" shape="8.00,-16.80 8.00,16.80"/>
        <lane id=":TL0_11_2" index="2" speed="13.89" length="33.60" shape="4.80,-16.80 4.80,16.80"/>
    </edge>
    <edge id=":TL0_14" function="internal">
        <lane id=":TL0_14_0" index="0" speed="11.36" length="29.67" shape="1.60,-16.80 0.45,-8.75 -3.00,-3.00 -8.75,0.45 -16.80,1.60"/>
    </edge>
    <edge id=":TL0_15" function="internal">
        <lane id=":TL0_15_0" index="0" speed="6.51" length="9.03" shape="-16.80,-11.20 -14.35,-11.55 -12.60,-12.60 -11.55,-14.35 -11.20,-16.80"/>
    </edge>
    <edge id=":TL0_16" function="internal">
        <lane id=":TL0_16_0" index="0" speed="13.89" length="33.60" shape="-16.80,-11.20 16.80,-11.20"/>
        <lane id=":TL0_16_1" index="1" speed="13.89" length="33.60" shape="-16.80,-8.00 16.80,-8.00"/>
        <lane id=":TL0_16_2" index="2" speed="13.89" length="33.60" shape="-16.80,-4.80 16.80,-4.80"/>
    </edge>
    <edge id=":TL0_19" function="internal">
        <lane id=":TL0_19_0" index="0" speed="11.36" length="29.67" shape="-16.80,-1.60 -8.75,-0.45 -3.00,3.00 0.45,8.75 1.60,16.80"/>
    </edge>
    <edge id=":TL1_0" function="internal">
        <lane id=":TL1_0_0" index="0" speed="6.51" length="9.03" shape="738.80,16.80 738.45,14.35 737.40,12.60 735.65,11.55 733.20,11.20"/>
    </edge>
    <edge id=":TL1_1" function="internal">
        <lane id=":TL1_1_0" index="0" speed="13.89" length="33.60" shape="738.80,16.80 738.80,-16.80"/>
        <lane id=":TL1_1_1" index="1" speed="13.89" length="33.60" shape="742.00,16.80 742.00,-16.80"/>
        <lane id=":TL1_1_2" index="2" speed="13.89" length="33.60" shape="745.20,16.80 745.20,-16.80"/>
    </edge>
    <edge id=":TL1_4" function="internal">
        <lane id=":TL1_4_0" index="0" speed="11.36" length="13.36" shape="748.40,16.80 749.55,8.75 752.24,4.26"/>
    </edge>
    <edge id=":TL1_20" function="internal">
        <lane id=":TL1_20_0" index="0" speed="11.36" length="16.31" shape="752.24,4.26 753.00,3.00 758.75,-0.45 766.80,-1.60"/>
    </edge>
    <edge id=":TL1_5" function="internal">
        <lane id=":TL1_5_0" index="0" speed="6.51" length="9.03" shape="766.80,11.20 764.35,11.55 762.60,12.60 761.55,14.35 761.20,16.80"/>
    </edge>
    <edge id=":TL1_6" function="internal">
        <lane id=":TL1_6_0" index="0" speed="13.89" length="33.60" shape="766.80,11.20 733.20,11.20"/>
        <lane id=":TL1_6_1" index="1" speed="13.89" length="33.60" shape="766.80,8.00 733.20,8.00"/>
        <lane id=":TL1_6_2" index="2" speed="13.89" length="33.60" shape="766.80,4.80 733.20,4.80"/>
    </edge>
    <edge id=":TL1_9" function="internal">
        <lane id=":TL1_9_0" index="0" speed="11.36" length="13.36" shape="766.80,1.60 758.75,0.45 754.26,-2.24"/>
    </edge>
    <edge id=":TL1_21" function="internal">
        <lane id=":TL1_21_0" index="0" speed="11.36" length="16.31" shape="754.26,-2.24 753.00,-3.00 749.55,-8.75 748.40,-16.80"/>
    </edge>
    <edge id=":TL1_10" function="internal">
        <lane id=":TL1_10_0" index="0" speed="6.51" length="9.03" shape="761.20,-16.80 761.55,-14.35 762.60,-12.60 764.35,-11.55 766.80,-11.20"/>
    </edge>
    <edge id=":TL1_11" function="internal">
        <lane id=":TL1_11_0" index="0" speed="13.89" length="33.60" shape="761.20,-16.80 761.20,16.80"/>
        <lane id=":TL1_11_1" index="1" speed="13.89" length="33.60" shape="758.00,-16.80 758.00,16.80"/>
        <lane id=":TL1_11_2" index="2" speed="13.89" length="33.60" shape="754.80,-16.80 754.80,16.80"/>
    </edge>
    <edge id=":TL1_14" function="internal">
        <lane id=":TL1_14_0" index="0" speed="11.36" length="13.36" shape="751.60,-16.80 750.45,-8.75 747.76,-4.26"/>
    </edge>
    <edge id=":TL1_22" function="internal">
        <lane id=":TL1_22_0" index="0" speed="11.36" length="16.31" shape="747.76,-4.26 747.00,-3.00 741.25,0.45 733.20,1.60"/>
    </edge>
    <edge id=":TL1_15" function="internal">
        <lane id=":TL1_15_0" index="0" speed="6.51" length="9.03" shape="733.20,-11.20 735.65,-11.55 737.40,-12.60 738.45,-14.35 738.80,-16.80"/>
    </edge>
    <edge id=":TL1_16" function="internal">
        <lane id=":TL1_16_0" index="0" speed="13.89" length="33.60" shape="733.20,-11.20 766.80,-11.20"/>
        <lane id=":TL1_16_1" index="1" speed="13.89" length="33.60" shape="733.20,-8.00 766.80,-8.00"/>
        <lane id=":TL1_16_2" index="2" speed="13.89" length="33.60" shape="733.20,-4.80 766.80,-4.80"/>
    </edge>
    <edge id=":TL1_19" function="internal">
        <lane id=":TL1_19_0" index="0" speed="11.36" length="13.36" shape="733.20,-1.60 741.25,-0.45 745.74,2.24"/>
    </edge>
    <edge id=":TL1_23" function="internal">
        <lane id=":TL1_23_0" index="0" speed="11.36" length="16.31" shape="745.74,2.24 747.00,3.00 750.45,8.75 751.60,16.80"/>
    </edge>

    <edge id="E2TL1" from="J0" to="TL1" priority="-1">
        <lane id="E2TL1_0" index="0" speed="13.89" length="733.20" shape="1500.00,11.20 766.80,11.20"/>
        <lane id="E2TL1_1" index="1" speed="13.89" length="733.20" shape="1500.00,8.00 766.80,8.00"/>
        <lane id="E2TL1_2" index="2" speed="13.89" length="733.20" shape="1500.00,4.80 766.80,4.80"/>
        <lane id="E2TL1_3" index="3" speed="13.89" length="733.20" shape="1500.00,1.60 766.80,1.60"/>
    </edge>
    <edge id="N2TL0" from="DN" to="TL0" priority="-1" length="750.00">
        <lane id="N2TL0_0" index="0" speed="13.89" length="750.00" shape="-11.20,750.00 -11.20,16.80"/>
        <lane id="N2TL0_1" index="1" speed="13.89" length="750.00" shape="-8.00,750.00 -8.00,16.80"/>
        <lane id="N2TL0_2" index="2" speed="13.89" length="750.00" shape="-4.80,750.00 -4.80,16.80"/>
        <lane id="N2TL0_3" index="3" speed="13.89" length="750.00" shape="-1.60,750.00 -1.60,16.80"/>
    </edge>
    <edge id="N2TL1" from="J1" to="TL1" priority="-1" length="750.00">
        <lane id="N2TL1_0" index="0" speed="13.89" length="750.00" shape="738.80,750.00 738.80,16.80"/>
        <lane id="N2TL1_1" index="1" speed="13.89" length="750.00" shape="742.00,750.00 742.00,16.80"/>
        <lane id="N2TL1_2" index="2" speed="13.89" length="750.00" shape="745.20,750.00 745.20,16.80"/>
        <lane id="N2TL1_3" index="3" speed="13.89" length="750.00" shape="748.40,750.00 748.40,16.80"/>
    </edge>
    <edge id="S2TL0" from="DS" to="TL0" priority="-1" length="750.00">
        <lane id="S2TL0_0" index="0" speed="13.89" length="750.00" shape="11.20,-750.00 11.20,-16.80"/>
        <lane id="S2TL0_1" index="1" speed="13.89" length="750.00" shape="8.00,-750.00 8.00,-16.80"/>
        <lane id="S2TL0_2" index="2" speed="13.89" length="750.00" shape="4.80,-750.00 4.80,-16.80"/>
        <lane id="S2TL0_3" index="3" speed="13.89" length="750.00" shape="1.60,-750.00 1.60,-16.80"/>
    </edge>
    <edge id="S2TL1" from="J2" to="TL1" priority="-1">
        <lane id="S2TL1_0" index="0" speed="13.89" length="733.20" shape="761.20,-750.00 761.20,-16.80"/>
        <lane id="S2TL1_1" index="1" speed="13.89" length="733.20" shape="758.00,-750.00 758.00,-16.80"/>
        <lane id="S2TL1_2" index="2" speed="13.89" length="733.20" shape="754.80,-750.00 754.80,-16.80"/>
        <lane id="S2TL1_3" index="3" speed="13.89" length="733.20" shape="751.60,-750.00 751.60,-16.80"/>
    </edge>
    <edge id="TL02N" from="TL0" to="DN" priority="-1" length="750.00">
        <lane id="TL02N_0" index="0" speed="13.89" length="750.00" shape="11.20,16.80 11.20,750.00"/>
        <lane id="TL02N_1" index="1" speed="13.89" length="750.00" shape="8.00,16.80 8.00,750.00"/>
        <lane id="TL02N_2" index="2" speed="13.89" length="750.00" shape="4.80,16.80 4.80,750.00"/>
        <lane id="TL02N_3" index="3" speed="13.89" length="750.00" shape="1.60,16.80 1.60,750.00"/>
    </edge>
    <edge id="TL02S" from="TL0" to="DS" priority="-1" length="750.00">
        <lane id="TL02S_0" index="0" speed="13.89" length="750.00" shape="-11.20,-16.80 -11.20,-750.00"/>
        <lane id="TL02S_1" index="1" speed="13.89" length="750.00" shape="-8.00,-16.80 -8.00,-750.00"/>
        <lane id="TL02S_2" index="2" speed="13.89" length="750.00" shape="-4.80,-16.80 -4.80,-750.00"/>
        <lane id="TL02S_3" index="3" speed="13.89" length="750.00" shape="-1.60,-16.80 -1.60,-750.00"/>
    </edge>
    <edge id="TL02TL1" from="TL0" to="TL1" priority="-1" length="750.00">
        <lane id="TL02TL1_0" index="0" speed="13.89" length="750.00" shape="16.80,-11.20 733.20,-11.20"/>
        <lane id="TL02TL1_1" index="1" speed="13.89" length="750.00" shape="16.80,-8.00 733.20,-8.00"/>
        <lane id="TL02TL1_2" index="2" speed="13.89" length="750.00" shape="16.80,-4.80 733.20,-4.80"/>
        <lane id="TL02TL1_3" index="3" speed="13.89" length="750.00" shape="16.80,-1.60 733.20,-1.60"/>
    </edge>
    <edge id="TL02W" from="TL0" to="DW" priority="-1" length="750.00">
        <lane id="TL02W_0" index="0" speed="13.89" length="750.00" shape="-16.80,11.20 -750.00,11.20"/>
        <lane id="TL02W_1" index="1" speed="13.89" length="750.00" shape="-16.80,8.00 -750.00,8.00"/>
        <lane id="TL02W_2" index="2" speed="13.89" length="750.00" shape="-16.80,4.80 -750.00,4.80"/>
        <lane id="TL02W_3" index="3" speed="13.89" length="750.00" shape="-16.80,1.60 -750.00,1.60"/>
    </edge>
    <edge id="TL12E" from="TL1" to="J0" priority="-1">
        <lane id="TL12E_0" index="0" speed="13.89" length="733.20" shape="766.80,-11.20 1500.00,-11.20"/>
        <lane id="TL12E_1" index="1" speed="13.89" length="733.20" shape="766.80,-8.00 1500.00,-8.00"/>
        <lane id="TL12E_2" index="2" speed="13.89" length="733.20" shape="766.80,-4.80 1500.00,-4.80"/>
        <lane id="TL12E_3" index="3" speed="13.89" length="733.20" shape="766.80,-1.60 1500.00,-1.60"/>
    </edge>
    <edge id="TL12N" from="TL1" to="J1" priority="-1">
        <lane id="TL12N_0" index="0" speed="13.89" length="733.20" shape="761.20,16.80 761.20,750.00"/>
        <lane id="TL12N_1" index="1" speed="13.89" length="733.20" shape="758.00,16.80 758.00,750.00"/>
        <lane id="TL12N_2" index="2" speed="13.89" length="733.20" shape="754.80,16.80 754.80,750.00"/>
        <lane id="TL12N_3" index="3" speed="13.89" length="733.20" shape="751.60,16.80 751.60,750.00"/>
    </edge>
    <edge id="TL12S" from="TL1" to="J2" priority="-1">
        <lane id="TL12S_0" index="0" speed="13.89" length="733.20" shape="738.80,-16.80 738.80,-750.00"/>
        <lane id="TL12S_1" index="1" speed="13.89" length="733.20" shape="742.00,-16.80 742.00,-750.00"/>
        <lane id="TL12S_2" index="2" speed="13.89" length="733.20" shape="745.20,-16.80 745.20,-750.00"/>
        <lane id="TL12S_3" index="3" speed="13.89" length="733.20" shape="748.40,-16.80 748.40,-750.00"/>
    </edge>
    <edge id="TL12TL0" from="TL1" to="TL0" priority="-1" length="750.00">
        <lane id="TL12TL0_0" index="0" speed="13.89" length="750.00" shape="733.20,11.20 16.80,11.20"/>
        <lane id="TL12TL0_1" index="1" speed="13.89" length="750.00" shape="733.20,8.00 16.80,8.00"/>
        <lane id="TL12TL0_2" index="2" speed="13.89" length="750.00" shape="733.20,4.80 16.80,4.80"/>
        <lane id="TL12TL0_3" index="3" speed="13.89" length="750.00" shape="733.20,1.60 16.80,1.60"/>
    </edge>
    <edge id="W2TL0" from="DW" to="TL0" priority="-1" length="750.00">
        <lane id="W2TL0_0" index="0" speed="13.89" length="750.00" shape="-750.00,-11.20 -16.80,-11.20"/>
        <lane id="W2TL0_1" index="1" speed="13.89" length="750.00" shape="-750.00,-8.00 -16.80,-8.00"/>
        <lane id="W2TL0_2" index="2" speed="13.89" length="750.00" shape="-750.00,-4.80 -16.80,-4.80"/>
        <lane id="W2TL0_3" index="3" speed="13.89" length="750.00" shape="-750.00,-1.60 -16.80,-1.60"/>
    </edge>

    <tlLogic id="TL0" type="static" programID="0" offset="0">
        <phase duration="100" state="GGGGrrrrrrGGGGrrrrrr"/>
        <phase duration="100" state="yyyyrrrrrryyyyrrrrrr"/>
        <phase duration="100" state="rrrrGrrrrrrrrrGrrrrr"/>
        <phase duration="100" state="rrrryrrrrrrrrryrrrrr"/>
        <phase duration="100" state="rrrrrGGGGrrrrrrGGGGr"/>
        <phase duration="100" state="rrrrryyyyrrrrrryyyyr"/>
        <phase duration="100" state="rrrrrrrrrGrrrrrrrrrG"/>
        <phase duration="100" state="rrrrrrrrryrrrrrrrrry"/>
    </tlLogic>
    <tlLogic id="TL1" type="static" programID="0" offset="0">
        <phase duration="100" state="GGGGrrrrrrGGGGrrrrrr"/>
        <phase duration="100" state="yyyyrrrrrryyyyrrrrrr"/>
        <phase duration="100" state="rrrrGrrrrrrrrrGrrrrr"/>
        <phase duration="100" state="rrrryrrrrrrrrryrrrrr"/>
        <phase duration="100" state="rrrrrGGGGrrrrrrGGGGr"/>
        <phase duration="100" state="rrrrryyyyrrrrrryyyyr"/>
        <phase duration="100" state="rrrrrrrrrGrrrrrrrrrG"/>
        <phase duration="100" state="rrrrrrrrryrrrrrrrrry"/>
    </tlLogic>

    <junction id="DN" type="dead_end" x="0.00" y="750.00" incLanes="TL02N_0 TL02N_1 TL02N_2 TL02N_3" intLanes="" shape="0.00,750.00 12.80,750.00 0.00,750.00"/>
    <junction id="DS" type="dead_end" x="0.00" y="-750.00" incLanes="TL02S_0 TL02S_1 TL02S_2 TL02S_3" intLanes="" shape="0.00,-750.00 -12.80,-750.00 0.00,-750.00"/>
    <junction id="DW" type="dead_end" x="-750.00" y="0.00" incLanes="TL02W_0 TL02W_1 TL02W_2 TL02W_3" intLanes="" shape="-750.00,0.00 -750.00,12.80 -750.00,0.00"/>
    <junction id="J0" type="dead_end" x="1500.00" y="0.00" incLanes="TL12E_0 TL12E_1 TL12E_2 TL12E_3" intLanes="" shape="1500.00,0.00 1500.00,-12.80 1500.00,0.00"/>
    <junction id="J1" type="dead_end" x="750.00" y="750.00" incLanes="TL12N_0 TL12N_1 TL12N_2 TL12N_3" intLanes="" shape="750.00,750.00 762.80,750.00 750.00,750.00"/>
    <junction id="J2" type="dead_end" x="750.00" y="-750.00" incLanes="TL12S_0 TL12S_1 TL12S_2 TL12S_3" intLanes="" shape="750.00,-750.00 737.20,-750.00 750.00,-750.00"/>
    <junction id="TL0" type="traffic_light" x="0.00" y="0.00" incLanes="N2TL0_0 N2TL0_1 N2TL0_2 N2TL0_3 TL12TL0_0 TL12TL0_1 TL12TL0_2 TL12TL0_3 S2TL0_0 S2TL0_1 S2TL0_2 S2TL0_3 W2TL0_0 W2TL0_1 W2TL0_2 W2TL0_3" intLanes=":TL0_0_0 :TL0_1_0 :TL0_1_1 :TL0_1_2 :TL0_4_0 :TL0_5_0 :TL0_6_0 :TL0_6_1 :TL0_6_2 :TL0_9_0 :TL0_10_0 :TL0_11_0 :TL0_11_1 :TL0_11_2 :TL0_14_0 :TL0_15_0 :TL0_16_0 :TL0_16_1 :TL0_16_2 :TL0_19_0" shape="-12.80,16.80 12.80,16.80 13.24,14.58 13.80,13.80 14.58,13.24 15.58,12.91 16.80,12.80 16.80,-12.80 14.58,-13.24 13.80,-13.80 13.24,-14.58 12.91,-15.58 12.80,-16.80 -12.80,-16.80 -13.24,-14.58 -13.80,-13.80 -14.58,-13.24 -15.58,-12.91 -16.80,-12.80 -16.80,12.80 -14.58,13.24 -13.80,13.80 -13.24,14.58 -12.91,15.58">
        <request index="0"  response="00000000000000000000" foes="00000000000111000000" cont="0"/>
        <request index="1"  response="00000000000000000000" foes="11111100000111000000" cont="0"/>
        <request index="2"  response="00000000000000000000" foes="11111100000111000000" cont="0"/>
        <request index="3"  response="00000000000000000000" foes="11111100000111000000" cont="0"/>
        <request index="4"  response="00000011100000000000" foes="10000011101111000000" cont="0"/>
        <request index="5"  response="00000011100000000000" foes="00000011100000000000" cont="0"/>
        <request index="6"  response="00000011100000011111" foes="10000011100000011111" cont="0"/>
        <request index="7"  response="00000011100000011111" foes="10000011100000011111" cont="0"/>
        <request index="8"  response="00000011100000011111" foes="10000011100000011111" cont="0"/>
        <request index="9"  response="01110111100000010000" foes="01110111100000010000" cont="0"/>
        <request index="10" response="00000000000000000000" foes="01110000000000000000" cont="0"/>
        <request index="11" response="00000000000000000000" foes="01110000001111110000" cont="0"/>
        <request index="12" response="00000000000000000000" foes="01110000001111110000" cont="0"/>
        <request index="13" response="00000000000000000000" foes="01110000001111110000" cont="0"/>
        <request index="14" response="00000000000000001110" foes="11110000001000001110" cont="0"/>
        <request index="15" response="00000000000000001110" foes="00000000000000001110" cont="0"/>
        <request index="16" response="00000111110000001110" foes="00000111111000001110" cont="0"/>
        <request index="17" response="00000111110000001110" foes="00000111111000001110" cont="0"/>
        <request index="18" response="00000111110000001110" foes="00000111111000001110" cont="0"/>
        <request index="19" response="00000100000111011110" foes="00000100000111011110" cont="0"/>
    </junction>
    <junction id="TL1" type="traffic_light" x="750.00" y="0.00" incLanes="N2TL1_0 N2TL1_1 N2TL1_2 N2TL1_3 E2TL1_0 E2TL1_1 E2TL1_2 E2TL1_3 S2TL1_0 S2TL1_1 S2TL1_2 S2TL1_3 TL02TL1_0 TL02TL1_1 TL02TL1_2 TL02TL1_3" intLanes=":TL1_0_0 :TL1_1_0 :TL1_1_1 :TL1_1_2 :TL1_20_0 :TL1_5_0 :TL1_6_0 :TL1_6_1 :TL1_6_2 :TL1_21_0 :TL1_10_0 :TL1_11_0 :TL1_11_1 :TL1_11_2 :TL1_22_0 :TL1_15_0 :TL1_16_0 :TL1_16_1 :TL1_16_2 :TL1_23_0" shape="737.20,16.80 762.80,16.80 763.24,14.58 763.80,13.80 764.58,13.24 765.58,12.91 766.80,12.80 766.80,-12.80 764.58,-13.24 763.80,-13.80 763.24,-14.58 762.91,-15.58 762.80,-16.80 737.20,-16.80 736.76,-14.58 736.20,-13.80 735.42,-13.24 734.42,-12.91 733.20,-12.80 733.20,12.80 735.42,13.24 736.20,13.80 736.76,14.58 737.09,15.58">
        <request index="0"  response="00000000000000000000" foes="00000000000111000000" cont="0"/>
        <request index="1"  response="00000000000000000000" foes="11111100000111000000" cont="0"/>
        <request index="2"  response="00000000000000000000" foes="11111100000111000000" cont="0"/>
        <request index="3"  response="00000000000000000000" foes="11111100000111000000" cont="0"/>
        <request index="4"  response="00000011100000000000" foes="10000011101111000000" cont="0"/>
        <request index="5"  response="00000011100000000000" foes="00000011100000000000" cont="0"/>
        <request index="6"  response="00000011100000011111" foes="10000011100000011111" cont="0"/>
        <request index="7"  response="00000011100000011111" foes="10000011100000011111" cont="0"/>
        <request index="8"  response="00000011100000011111" foes="10000011100000011111" cont="0"/>
        <request index="9"  response="01110111100000010000" foes="01110111100000010000" cont="0"/>
        <request index="10" response="00000000000000000000" foes="01110000000000000000" cont="0"/>
        <request index="11" response="00000000000000000000" foes="01110000001111110000" cont="0"/>
        <request index="12" response="00000000000000000000" foes="01110000001111110000" cont="0"/>
        <request index="13" response="00000000000000000000" foes="01110000001111110000" cont="0"/>
        <request index="14" response="00000000000000001110" foes="11110000001000001110" cont="0"/>
        <request index="15" response="00000000000000001110" foes="00000000000000001110" cont="0"/>
        <request index="16" response="00000111110000001110" foes="00000111111000001110" cont="0"/>
        <request index="17" response="00000111110000001110" foes="00000111111000001110" cont="0"/>
        <request index="18" response="00000111110000001110" foes="00000111111000001110" cont="0"/>
        <request index="19" response="00000100000111011110" foes="00000100000111011110" cont="0"/>
    </junction>

    <junction id=":TL1_20_0" type="internal" x="752.24" y="4.26" incLanes=":TL1_4_0 S2TL1_0 S2TL1_1 S2TL1_2" intLanes=":TL1_6_0 :TL1_6_1 :TL1_6_2 :TL1_9_0 :TL1_10_0 :TL1_11_0 :TL1_11_1 :TL1_11_2 :TL1_16_0 :TL1_16_1 :TL1_16_2 :TL1_19_0"/>
    <junction id=":TL1_21_0" type="internal" x="754.26" y="-2.24" incLanes=":TL1_9_0 TL02TL1_0 TL02TL1_1 TL02TL1_2" intLanes=":TL1_1_0 :TL1_1_1 :TL1_1_2 :TL1_4_0 :TL1_11_0 :TL1_11_1 :TL1_11_2 :TL1_14_0 :TL1_15_0 :TL1_16_0 :TL1_16_1 :TL1_16_2"/>
    <junction id=":TL1_22_0" type="internal" x="747.76" y="-4.26" incLanes=":TL1_14_0 N2TL1_0 N2TL1_1 N2TL1_2" intLanes=":TL1_0_0 :TL1_1_0 :TL1_1_1 :TL1_1_2 :TL1_6_0 :TL1_6_1 :TL1_6_2 :TL1_9_0 :TL1_16_0 :TL1_16_1 :TL1_16_2 :TL1_19_0"/>
    <junction id=":TL1_23_0" type="internal" x="745.74" y="2.24" incLanes=":TL1_19_0 E2TL1_0 E2TL1_1 E2TL1_2" intLanes=":TL1_1_0 :TL1_1_1 :TL1_1_2 :TL1_4_0 :TL1_5_0 :TL1_6_0 :TL1_6_1 :TL1_6_2 :TL1_11_0 :TL1_11_1 :TL1_11_2 :TL1_14_0"/>

    <connection from="E2TL1" to="TL12N" fromLane="0" toLane="0" via=":TL1_5_0" tl="TL1" linkIndex="5" dir="r" state="o"/>
    <connection from="E2TL1" to="TL12TL0" fromLane="0" toLane="0" via=":TL1_6_0" tl="TL1" linkIndex="6" dir="s" state="o"/>
    <connection from="E2TL1" to="TL12TL0" fromLane="1" toLane="1" via=":TL1_6_1" tl="TL1" linkIndex="7" dir="s" state="o"/>
    <connection from="E2TL1" to="TL12TL0" fromLane="2" toLane="2" via=":TL1_6_2" tl="TL1" linkIndex="8" dir="s" state="o"/>
    <connection from="E2TL1" to="TL12S" fromLane="3" toLane="3" via=":TL1_9_0" tl="TL1" linkIndex="9" dir="l" state="o"/>
    <connection from="N2TL0" to="TL02W" fromLane="0" toLane="0" via=":TL0_0_0" tl="TL0" linkIndex="0" dir="r" state="O"/>
    <connection from="N2TL0" to="TL02S" fromLane="0" toLane="0" via=":TL0_1_0" tl="TL0" linkIndex="1" dir="s" state="O"/>
    <connection from="N2TL0" to="TL02S" fromLane="1" toLane="1" via=":TL0_1_1" tl="TL0" linkIndex="2" dir="s" state="O"/>
    <connection from="N2TL0" to="TL02S" fromLane="2" toLane="2" via=":TL0_1_2" tl="TL0" linkIndex="3" dir="s" state="O"/>
    <connection from="N2TL0" to="TL02TL1" fromLane="3" toLane="3" via=":TL0_4_0" tl="TL0" linkIndex="4" dir="l" state="o"/>
    <connection from="N2TL1" to="TL12TL0" fromLane="0" toLane="0" via=":TL1_0_0" tl="TL1" linkIndex="0" dir="r" state="O"/>
    <connection from="N2TL1" to="TL12S" fromLane="0" toLane="0" via=":TL1_1_0" tl="TL1" linkIndex="1" dir="s" state="O"/>
    <connection from="N2TL1" to="TL12S" fromLane="1" toLane="1" via=":TL1_1_1" tl="TL1" linkIndex="2" dir="s" state="O"/>
    <connection from="N2TL1" to="TL12S" fromLane="2" toLane="2" via=":TL1_1_2" tl="TL1" linkIndex="3" dir="s" state="O"/>
    <connection from="N2TL1" to="TL12E" fromLane="3" toLane="3" via=":TL1_4_0" tl="TL1" linkIndex="4" dir="l" state="o"/>
    <connection from="S2TL0" to="TL02TL1" fromLane="0" toLane="0" via=":TL0_10_0" tl="TL0" linkIndex="10" dir="r" state="O"/>
    <connection from="S2TL0" to="TL02N" fromLane="0" toLane="0" via=":TL0_11_0" tl="TL0" linkIndex="11" dir="s" state="O"/>
    <connection from="S2TL0" to="TL02N" fromLane="1" toLane="1" via=":TL0_11_1" tl="TL0" linkIndex="12" dir="s" state="O"/>
    <connection from="S2TL0" to="TL02N" fromLane="2" toLane="2" via=":TL0_11_2" tl="TL0" linkIndex="13" dir="s" state="O"/>
    <connection from="S2TL0" to="TL02W" fromLane="3" toLane="3" via=":TL0_14_0" tl="TL0" linkIndex="14" dir="l" state="o"/>
    <connection from="S2TL1" to="TL12E" fromLane="0" toLane="0" via=":TL1_10_0" tl="TL1" linkIndex="10" dir="r" state="O"/>
    <connection from="S2TL1" to="TL12N" fromLane="0" toLane="0" via=":TL1_11_0" tl="TL1" linkIndex="11" dir="s" state="O"/>
    <connection from="S2TL1" to="TL12N" fromLane="1" toLane="1" via=":TL1_11_1" tl="TL1" linkIndex="12" dir="s" state="O"/>
    <connection from="S2TL1" to="TL12N" fromLane="2" toLane="2" via=":TL1_11_2" tl="TL1" linkIndex="13" dir="s" state="O"/>
    <connection from="S2TL1" to="TL12TL0" fromLane="3" toLane="3" via=":TL1_14_0" tl="TL1" linkIndex="14" dir="l" state="o"/>
    <connection from="TL02TL1" to="TL12S" fromLane="0" toLane="0" via=":TL1_15_0" tl="TL1" linkIndex="15" dir="r" state="o"/>
    <connection from="TL02TL1" to="TL12E" fromLane="0" toLane="0" via=":TL1_16_0" tl="TL1" linkIndex="16" dir="s" state="o"/>
    <connection from="TL02TL1" to="TL12E" fromLane="1" toLane="1" via=":TL1_16_1" tl="TL1" linkIndex="17" dir="s" state="o"/>
    <connection from="TL02TL1" to="TL12E" fromLane="2" toLane="2" via=":TL1_16_2" tl="TL1" linkIndex="18" dir="s" state="o"/>
    <connection from="TL02TL1" to="TL12N" fromLane="3" toLane="3" via=":TL1_19_0" tl="TL1" linkIndex="19" dir="l" state="o"/>
    <connection from="TL12TL0" to="TL02N" fromLane="0" toLane="0" via=":TL0_5_0" tl="TL0" linkIndex="5" dir="r" state="o"/>
    <connection from="TL12TL0" to="TL02W" fromLane="0" toLane="0" via=":TL0_6_0" tl="TL0" linkIndex="6" dir="s" state="o"/>
    <connection from="TL12TL0" to="TL02W" fromLane="1" toLane="1" via=":TL0_6_1" tl="TL0" linkIndex="7" dir="s" state="o"/>
    <connection from="TL12TL0" to="TL02W" fromLane="2" toLane="2" via=":TL0_6_2" tl="TL0" linkIndex="8" dir="s" state="o"/>
    <connection from="TL12TL0" to="TL02S" fromLane="3" toLane="3" via=":TL0_9_0" tl="TL0" linkIndex="9" dir="l" state="o"/>
    <connection from="W2TL0" to="TL02S" fromLane="0" toLane="0" via=":TL0_15_0" tl="TL0" linkIndex="15" dir="r" state="o"/>
    <connection from="W2TL0" to="TL02TL1" fromLane="0" toLane="0" via=":TL0_16_0" tl="TL0" linkIndex="16" dir="s" state="o"/>
    <connection from="W2TL0" to="TL02TL1" fromLane="1" toLane="1" via=":TL0_16_1" tl="TL0" linkIndex="17" dir="s" state="o"/>
    <connection from="W2TL0" to="TL02TL1" fromLane="2" toLane="2" via=":TL0_16_2" tl="TL0" linkIndex="18" dir="s" state="o"/>
    <connection from="W2TL0" to="TL02N" fromLane="3" toLane="3" via=":TL0_19_0" tl="TL0" linkIndex="19" dir="l" state="o"/>

    <connection from=":TL0_0" to="TL02W" fromLane="0" toLane="0" dir="r" state="M"/>
    <connection from=":TL0_1" to="TL02S" fromLane="0" toLane="0" dir="s" state="M"/>
    <connection from=":TL0_1" to="TL02S" fromLane="1" toLane="1" dir="s" state="M"/>
    <connection from=":TL0_1" to="TL02S" fromLane="2" toLane="2" dir="s" state="M"/>
    <connection from=":TL0_4" to="TL02TL1" fromLane="0" toLane="3" dir="l" state="M"/>
    <connection from=":TL0_5" to="TL02N" fromLane="0" toLane="0" dir="r" state="M"/>
    <connection from=":TL0_6" to="TL02W" fromLane="0" toLane="0" dir="s" state="M"/>
    <connection from=":TL0_6" to="TL02W" fromLane="1" toLane="1" dir="s" state="M"/>
    <connection from=":TL0_6" to="TL02W" fromLane="2" toLane="2" dir="s" state="M"/>
    <connection from=":TL0_9" to="TL02S" fromLane="0" toLane="3" dir="l" state="M"/>
    <connection from=":TL0_10" to="TL02TL1" fromLane="0" toLane="0" dir="r" state="M"/>
    <connection from=":TL0_11" to="TL02N" fromLane="0" toLane="0" dir="s" state="M"/>
    <connection from=":TL0_11" to="TL02N" fromLane="1" toLane="1" dir="s" state="M"/>
    <connection from=":TL0_11" to="TL02N" fromLane="2" toLane="2" dir="s" state="M"/>
    <connection from=":TL0_14" to="TL02W" fromLane="0" toLane="3" dir="l" state="M"/>
    <connection from=":TL0_15" to="TL02S" fromLane="0" toLane="0" dir="r" state="M"/>