<?xml version="1.0" encoding="UTF-8"?>

<!-- generated on 2025-03-28 19:19:55 by Eclipse SUMO netedit Version 1.21.0
<neteditConfiguration xmlns:xsi="http://www.w3.org/2001/XMLSchema-instance" xsi:noNamespaceSchemaLocation="http://sumo.dlr.de/xsd/neteditConfiguration.xsd">

    <input>
        <sumo-net-file value="C:\Users\oriol\Documents\VIU\TFM\RL-TrafficFlow-BQN\data\network\4environment.net.xml"/>
    </input>

    <output>
        <output-file value="C:\Users\oriol\Documents\VIU\TFM\RL-TrafficFlow-BQN\data\network\4environment.net.xml"/>
    </output>

    <processing>
        <geometry.min-radius.fix.railways value="false"/>
        <geometry.max-grade.fix value="false"/>
        <offset.disable-normalization value="true"/>
        <lefthand value="0"/>
    </processing>

    <junctions>
        <no-turnarounds value="true"/>
        <junctions.corner-detail value="5"/>
        <junctions.limit-turn-speed value="5.50"/>
        <rectangular-lane-cut value="0"/>
    </junctions>

    <pedestrian>
        <walkingareas value="0"/>
    </pedestrian>

</neteditConfiguration>
-->

<net version="1.20" junctionCornerDetail="5" limitTurnSpeed="5.50" xmlns:xsi="http://www.w3.org/2001/XMLSchema-instance" xsi:noNamespaceSchemaLocation="http://sumo.dlr.de/xsd/net_file.xsd">

    <location netOffset="0.00,0.00" convBoundary="-750.00,-750.00,1500.00,800.00" origBoundary="-10000000000.00,-10000000000.00,10000000000.00,10000000000.00" projParameter="!"/>

    <edge id=":TL0_0" function="internal">
        <lane id=":TL0_0_0" index="0" speed="6.51" length="9.03" shape="-11.20,16.80 -11.55,14.35 -12.60,12.60 -14.35,11.55 -16.80,11.20"/>
    </edge>
    <edge id=":TL0_1" function="internal">
        <lane id=":TL0_1_0" index="0" speed="13.89" length="33.60" shape="-11.20,16.80 -11.20,-16.80"/>
        <lane id=":TL0_1_1" index="1" speed="13.89" length="33.60" shape="-8.00,16.80 -8.00,-16.80"/>
        <lane id=":TL0_1_2" index="2" speed="13.89" length="33.60" shape="-4.80,16.80 -4.80,-16.80"/>
    </edge>
    <edge id=":TL0_4" function="internal">
        <lane id=":TL0_4_0" index="0" speed="11.36" length="29.67" shape="-1.60,16.80 -0.45,8.75 3.00,3.00 8.75,-0.45 16.80,-1.60"/>
    </edge>
    <edge id=":TL0_5" function="internal">
        <lane id=":TL0_5_0" index="0" speed="6.51" length="9.03" shape="16.80,11.20 14.35,11.55 12.60,12.60 11.55,14.35 11.20,16.80"/>
    </edge>
    <edge id=":TL0_6" function="internal">
        <lane id=":TL0_6_0" index="0" speed="13.89" length="33.60" shape="16.80,11.20 -16.80,11.20"/>
        <lane id=":TL0_6_1" index="1" speed="13.89" length="33.60" shape="16.80,8.00 -16.80,8.00"/>
        <lane id=":TL0_6_2" index="2" speed="13.89" length="33.60" shape="16.80,4.80 -16.80,4.80"/>
    </edge>
    <edge id=":TL0_9" function="internal">
        <lane id=":TL0_9_0" index="0" speed="11.36" length="29.67" shape="16.80,1.60 8.75,0.45 3.00,-3.00 -0.45,-8.75 -1.60,-16.80"/>
    </edge>
    <edge id=":TL0_10" function="internal">
        <lane id=":TL0_10_0" index="0" speed="6.51" length="9.03" shape="11.20,-16.80 11.55,-14.35 12.60,-12.60 14.35,-11.55 16.80,-11.20"/>
    </edge>
    <edge id=":TL0_11" function="internal">
        <lane id=":TL0_11_0" index="0" speed="13.89" length="33.60" shape="11.20,-16.80 11.20,16.80"/>
        <lane id=":TL0_11_1" index="1" speed="13.89" length="33.60" shape="8.00,-16.80 8.00,16.80"/>
        <lane id=":TL0_11_2" index="2" speed="13.89" length="33.60" shape="4.80,-16.80 4.80,16.80"/>
    </edge>
    <edge id=":TL0_14" function="internal">
        <lane id=":TL0_14_0" index="0" speed="11.36" length="29.67" shape="1.60,-16.80 0.45,-8.75 -3.00,-3.00 -8.75,0.45 -16.80,1.60"/>
    </edge>
    <edge id=":TL0_15" function="internal">
        <lane id=":TL0_15_0" index="0" speed="6.51" length="9.03" shape="-16.80,-11.20 -14.35,-11.55 -12.60,-12.60 -11.55,-14.35 -11.20,-16.80"/>
    </edge>
    <edge id=":TL0_16" function="internal">
        <lane id=":TL0_16_0" index="0" speed="13.89" length="33.60" shape="-16.80,-11.20 16.80,-11.20"/>
        <lane id=":TL0_16_1" index="1" speed="13.89" length="33.60" shape="-16.80,-8.00 16.80,-8.00"/>
        <lane id=":TL0_16_2" index="2" speed="13.89" length="33.60" shape="-16.80,-4.80 16.80,-4.80"/>
    </edge>
    <edge id=":TL0_19" function="internal">
        <lane id=":TL0_19_0" index="0" speed="11.36" length="29.67" shape="-16.80,-1.60 -8.75,-0.45 -3.00,3.00 0.45,8.75 1.60,16.80"/>
    </edge>
    <edge id=":TL1_0" function="internal">
        <lane id=":TL1_0_0" index="0" speed="6.51" length="9.03" shape="738.80,16.80 738.45,14.35 737.40,12.60 735.65,11.55 733.20,11.20"/>
    </edge>
    <edge id=":TL1_1" function="internal">
        <lane id=":TL1_1_0" index="0" speed="13.89" length="33.60" shape="738.80,16.80 738.80,-16.80"/>
        <lane id=":TL1_1_1" index="1" speed="13.89" length="33.60" shape="742.00,16.80 742.00,-16.80"/>
        <lane id=":TL1_1_2" index="2" speed="13.89" length="33.60" shape="745.20,16.80 745.20,-16.80"/>
    </edge>
    <edge id=":TL1_4" function="internal">
        <lane id=":TL1_4_0" index="0" speed="11.36" length="13.36" shape="748.40,16.80 749.55,8.75 752.24,4.26"/>
    </edge>
    <edge id=":TL1_20" function="internal">
        <lane id=":TL1_20_0" index="0" speed="11.36" length="16.31" shape="752.24,4.26 753.00,3.00 758.75,-0.45 766.80,-1.60"/>
    </edge>
    <edge id=":TL1_5" function="internal">
        <lane id=":TL1_5_0" index="0" speed="6.51" length="9.03" shape="766.80,11.20 764.35,11.55 762.60,12.60 761.55,14.35 761.20,16.80"/>
    </edge>
    <edge id=":TL1_6" function="internal">
        <lane id=":TL1_6_0" index="0" speed="13.89" length="33.60" shape="766.80,11.20 733.20,11.20"/>
        <lane id=":TL1_6_1" index="1" speed="13.89" length="33.60" shape="766.80,8.00 733.20,8.00"/>
        <lane id=":TL1_6_2" index="2" speed="13.89" length="33.60" shape="766.80,4.80 733.20,4.80"/>
    </edge>
    <edge id=":TL1_9" function="internal">
        <lane id=":TL1_9_0" index="0" speed="11.36" length="13.36" shape="766.80,1.60 758.75,0.45 754.26,-2.24"/>
    </edge>
    <edge id=":TL1_21" function="internal">
        <lane id=":TL1_21_0" index="0" speed="11.36" length="16.31" shape="754.26,-2.24 753.00,-3.00 749.55,-8.75 748.40,-16.80"/>
    </edge>
    <edge id=":TL1_10" function="internal">
        <lane id=":TL1_10_0" index="0" speed="6.51" length="9.03" shape="761.20,-16.80 761.55,-14.35 762.60,-12.60 764.35,-11.55 766.80,-11.20"/>
    </edge>
    <edge id=":TL1_11" function="internal">
        <lane id=":TL1_11_0" index="0" speed="13.89" length="33.60" shape="761.20,-16.80 761.20,16.80"/>
        <lane id=":TL1_11_1" index="1" speed="13.89" length="33.60" shape="758.00,-16.80 758.00,16.80"/>
        <lane id=":TL1_11_2" index="2" speed="13.89" length="33.60" shape="754.80,-16.80 754.80,16.80"/>
    </edge>
    <edge id=":TL1_14" function="internal">
        <lane id=":TL1_14_0" index="0" speed="11.36" length="13.36" shape="751.60,-16.80 750.45,-8.75 747.76,-4.26"/>
    </edge>
    <edge id=":TL1_22" function="internal">
        <lane id=":TL1_22_0" index="0" speed="11.36" length="16.31" shape="747.76,-4.26 747.00,-3.00 741.25,0.45 733.20,1.60"/>
    </edge>
    <edge id=":TL1_15" function="internal">
        <lane id=":TL1_15_0" index="0" speed="6.51" length="9.03" shape="733.20,-11.20 735.65,-11.55 737.40,-12.60 738.45,-14.35 738.80,-16.80"/>
    </edge>
    <edge id=":TL1_16" function="internal">
        <lane id=":TL1_16_0" index="0" speed="13.89" length="33.60" shape="733.20,-11.20 766.80,-11.20"/>
        <lane id=":TL1_16_1" index="1" speed="13.89" length="33.60" shape="733.20,-8.00 766.80,-8.00"/>
        <lane id=":TL1_16_2" index="2" speed="13.89" length="33.60" shape="733.20,-4.80 766.80,-4.80"/>
    </edge>
    <edge id=":TL1_19" function="internal">
        <lane id=":TL1_19_0" index="0" speed="11.36" length="13.36" shape="733.20,-1.60 741.25,-0.45 745.74,2.24"/>
    </edge>
    <edge id=":TL1_23" function="internal">
        <lane id=":TL1_23_0" index="0" speed="11.36" length="16.31" shape="745.74,2.24 747.00,3.00 750.45,8.75 751.60,16.80"/>
    </edge>
    <edge id=":TL2_0" function="internal">
        <lane id=":TL2_0_0" index="0" speed="6.51" length="9.03" shape="-11.20,416.80 -11.55,414.35 -12.60,412.60 -14.35,411.55 -16.80,411.20"/>
    </edge>
    <edge id=":TL2_1" function="internal">
        <lane id=":TL2_1_0" index="0" speed="13.89" length="33.60" shape="-11.20,416.80 -11.20,383.20"/>
        <lane id=":TL2_1_1" index="1" speed="13.89" length="33.60" shape="-8.00,416.80 -8.00,383.20"/>
        <lane id=":TL2_1_2" index="2" speed="13.89" length="33.60" shape="-4.80,416.80 -4.80,383.20"/>
    </edge>
    <edge id=":TL2_4" function="internal">
        <lane id=":TL2_4_0" index="0" speed="11.36" length="29.67" shape="-1.60,416.80 -0.45,408.75 3.00,403.00 8.75,399.55 16.80,398.40"/>
    </edge>
    <edge id=":TL2_5" function="internal">
        <lane id=":TL2_5_0" index="0" speed="6.51" length="9.03" shape="16.80,411.20 14.35,411.55 12.60,412.60 11.55,414.35 11.20,416.80"/>
    </edge>
    <edge id=":TL2_6" function="internal">
        <lane id=":TL2_6_0" index="0" speed="13.89" length="33.60" shape="16.80,411.20 -16.80,411.20"/>
        <lane id=":TL2_6_1" index="1" speed="13.89" length="33.60" shape="16.80,408.00 -16.80,408.00"/>
        <lane id=":TL2_6_2" index="2" speed="13.89" length="33.60" shape="16.80,404.80 -16.80,404.80"/>
    </edge>
    <edge id=":TL2_9" function="internal">
        <lane id=":TL2_9_0" index="0" speed="11.36" length="29.67" shape="16.80,401.60 8.75,400.45 3.00,397.00 -0.45,391.25 -1.60,383.20"/>
    </edge>
    <edge id=":TL2_10" function="internal">
        <lane id=":TL2_10_0" index="0" speed="6.51" length="9.03" shape="11.20,383.20 11.55,385.65 12.60,387.40 14.35,388.45 16.80,388.80"/>
    </edge>
    <edge id=":TL2_11" function="internal">
        <lane id=":TL2_11_0" index="0" speed="13.89" length="33.60" shape="11.20,383.20 11.20,416.80"/>
        <lane id=":TL2_11_1" index="1" speed="13.89" length="33.60" shape="8.00,383.20 8.00,416.80"/>
        <lane id=":TL2_11_2" index="2" speed="13.89" length="33.60" shape="4.80,383.20 4.80,416.80"/>
    </edge>
    <edge id=":TL2_14" function="internal">
        <lane id=":TL2_14_0" index="0" speed="11.36" length="29.67" shape="1.60,383.20 0.45,391.25 -3.00,397.00 -8.75,400.45 -16.80,401.60"/>
    </edge>
    <edge id=":TL2_15" function="internal">
        <lane id=":TL2_15_0" index="0" speed="6.51" length="9.03" shape="-16.80,388.80 -14.35,388.45 -12.60,387.40 -11.55,385.65 -11.20,383.20"/>
    </edge>
    <edge id=":TL2_16" function="internal">
        <lane id=":TL2_16_0" index="0" speed="13.89" length="33.60" shape="-16.80,388.80 16.80,388.80"/>
        <lane id=":TL2_16_1" index="1" speed="13.89" length="33.60" shape="-16.80,392.00 16.80,392.00"/>
        <lane id=":TL2_16_2" index="2" speed="13.89" length="33.60" shape="-16.80,395.20 16.80,395.20"/>
    </edge>
    <edge id=":TL2_19" function="internal">
        <lane id=":TL2_19_0" index="0" speed="11.36" length="29.67" shape="-16.80,398.40 -8.75,399.55 -3.00,403.00 0.45,408.75 1.60,416.80"/>
    </edge>
    <edge id=":TL3_0" function="internal">
        <lane id=":TL3_0_0" index="0" speed="6.51" length="9.03" shape="738.80,416.80 738.45,414.35 737.40,412.60 735.65,411.55 733.20,411.20"/>
    </edge>
    <edge id=":TL3_1" function="internal">
        <lane id=":TL3_1_0" index="0" speed="13.89" length="33.60" shape="738.80,416.80 738.80,383.20"/>
        <lane id=":TL3_1_1" index="1" speed="13.89" length="33.60" shape="742.00,416.80 742.00,383.20"/>
        <lane id=":TL3_1_2" index="2" speed="13.89" length="33.60" shape="745.20,416.80 745.20,383.20"/>
    </edge>
    <edge id=":TL3_4" function="internal">
        <lane id=":TL3_4_0" index="0" speed="11.36" length="29.67" shape="748.40,416.80 749.55,408.75 753.00,403.00 758.75,399.55 766.80,398.40"/>
    </edge>
    <edge id=":TL3_5" function="internal">
        <lane id=":TL3_5_0" index="0" speed="6.51" length="9.03" shape="766.80,411.20 764.35,411.55 762.60,412.60 761.55,414.35 761.20,416.80"/>
    </edge>
    <edge id=":TL3_6" function="internal">
        <lane id=":TL3_6_0" index="0" speed="13.89" length="33.60" shape="766.80,411.20 733.20,411.20"/>
        <lane id=":TL3_6_1" index="1" speed="13.89" length="33.60" shape="766.80,408.00 733.20,408.00"/>
        <lane id=":TL3_6_2" index="2" speed="13.89" length="33.60" shape="766.80,404.80 733.20,404.80"/>
    </edge>
    <edge id=":TL3_9" function="internal">
        <lane id=":TL3_9_0" index="0" speed="11.36" length="29.67" shape="766.80,401.60 758.75,400.45 753.00,397.00 749.55,391.25 748.40,383.20"/>
    </edge>
    <edge id=":TL3_10" function="internal">
        <lane id=":TL3_10_0" index="0" speed="6.51" length="9.03" shape="761.20,383.20 761.55,385.65 762.60,387.40 764.35,388.45 766.80,388.80"/>
    </edge>
    <edge id=":TL3_11" function="internal">
        <lane id=":TL3_11_0" index="0" speed="13.89" length="33.60" shape="761.20,383.20 761.20,416.80"/>
        <lane id=":TL3_11_1" index="1" speed="13.89" length="33.60" shape="758.00,383.20 758.00,416.80"/>
        <lane id=":TL3_11_2" index="2" speed="13.89" length="33.60" shape="754.80,383.20 754.80,416.80"/>
    </edge>
    <edge id=":TL3_14" function="internal">
        <lane id=":TL3_14_0" index="0" speed="11.36" length="29.67" shape="751.60,383.20 750.45,391.25 747.00,397.00 741.25,400.45 733.20,401.60"/>
    </edge>
    <edge id=":TL3_15" function="internal">
        <lane id=":TL3_15_0" index="0" speed="6.51" length="9.03" shape="733.20,388.80 735.65,388.45 737.40,387.40 738.45,385.65 738.80,383.20"/>
    </edge>
    <edge id=":TL3_16" function="internal">
        <lane id=":TL3_16_0" index="0" speed="13.89" length="33.60" shape="733.20,388.80 766.80,388.80"/>
        <lane id=":TL3_16_1" index="1" speed="13.89" length="33.60" shape="733.20,392.00 766.80,392.00"/>
        <lane id=":TL3_16_2" index="2" speed="13.89" length="33.60" shape="733.20,395.20 766.80,395.20"/>
    </edge>
    <edge id=":TL3_19" function="internal">
        <lane id=":TL3_19_0" index="0" speed="11.36" length="29.67" shape="733.20,398.40 741.25,399.55 747.00,403.00 750.45,408.75 751.60,416.80"/>
    </edge>

    <edge id="E2TL1" from="J0" to="TL1" priority="-1">
        <lane id="E2TL1_0" index="0" speed="13.89" length="733.20" shape="1500.00,11.20 766.80,11.20"/>
        <lane id="E2TL1_1" index="1" speed="13.89" length="733.20" shape="1500.00,8.00 766.80,8.00"/>
        <lane id="E2TL1_2" index="2" speed="13.89" length="733.20" shape="1500.00,4.80 766.80,4.80"/>
        <lane id="E2TL1_3" index="3" speed="13.89" length="733.20" shape="1500.00,1.60 766.80,1.60"/>
    </edge>
    <edge id="E2TL3" from="J6" to="TL3" priority="-1">
        <lane id="E2TL3_0" index="0" speed="13.89" length="383.20" shape="1150.00,411.20 766.80,411.20"/>
        <lane id="E2TL3_1" index="1" speed="13.89" length="383.20" shape="1150.00,408.00 766.80,408.00"/>
        <lane id="E2TL3_2" index="2" speed="13.89" length="383.20" shape="1150.00,404.80 766.80,404.80"/>
        <lane id="E2TL3_3" index="3" speed="13.89" length="383.20" shape="1150.00,401.60 766.80,401.60"/>
    </edge>
    <edge id="N2TL2" from="J3" to="TL2" priority="-1">
        <lane id="N2TL2_0" index="0" speed="13.89" length="383.20" shape="-11.20,800.00 -11.20,416.80"/>
        <lane id="N2TL2_1" index="1" speed="13.89" length="383.20" shape="-8.00,800.00 -8.00,416.80"/>
        <lane id="N2TL2_2" index="2" speed="13.89" length="383.20" shape="-4.80,800.00 -4.80,416.80"/>
        <lane id="N2TL2_3" index="3" speed="13.89" length="383.20" shape="-1.60,800.00 -1.60,416.80"/>
    </edge>
    <edge id="N2TL3" from="J5" to="TL3" priority="-1">
        <lane id="N2TL3_0" index="0" speed="13.89" length="383.20" shape="738.80,800.00 738.80,416.80"/>
        <lane id="N2TL3_1" index="1" speed="13.89" length="383.20" shape="742.00,800.00 742.00,416.80"/>
        <lane id="N2TL3_2" index="2" speed="13.89" length="383.20" shape="745.20,800.00 745.20,416.80"/>
        <lane id="N2TL3_3" index="3" speed="13.89" length="383.20" shape="748.40,800.00 748.40,416.80"/>
    </edge>
    <edge id="S2TL0" from="DS" to="TL0" priority="-1" length="750.00">
        <lane id="S2TL0_0" index="0" speed="13.89" length="750.00" shape="11.20,-750.00 11.20,-16.80"/>
        <lane id="S2TL0_1" index="1" speed="13.89" length="750.00" shape="8.00,-750.00 8.00,-16.80"/>
        <lane id="S2TL0_2" index="2" speed="13.89" length="750.00" shape="4.80,-750.00 4.80,-16.80"/>
        <lane id="S2TL0_3" index="3" speed="13.89" length="750.00" shape="1.60,-750.00 1.60,-16.80"/>
    </edge>
    <edge id="S2TL1" from="J2" to="TL1" priority="-1">
        <lane id="S2TL1_0" index="0" speed="13.89" length="733.20" shape="761.20,-750.00 761.20,-16.80"/>
        <lane id="S2TL1_1" index="1" speed="13.89" length="733.20" shape="758.00,-750.00 758.00,-16.80"/>
        <lane id="S2TL1_2" index="2" speed="13.89" length="733.20" shape="754.80,-750.00 754.80,-16.80"/>
        <lane id="S2TL1_3" index="3" speed="13.89" length="733.20" shape="751.60,-750.00 751.60,-16.80"/>
    </edge>
    <edge id="TL02S" from="TL0" to="DS" priority="-1" length="750.00">
        <lane id="TL02S_0" index="0" speed="13.89" length="750.00" shape="-11.20,-16.80 -11.20,-750.00"/>
        <lane id="TL02S_1" index="1" speed="13.89" length="750.00" shape="-8.00,-16.80 -8.00,-750.00"/>
        <lane id="TL02S_2" index="2" speed="13.89" length="750.00" shape="-4.80,-16.80 -4.80,-750.00"/>
        <lane id="TL02S_3" index="3" speed="13.89" length="750.00" shape="-1.60,-16.80 -1.60,-750.00"/>
    </edge>
    <edge id="TL02TL1" from="TL0" to="TL1" priority="-1" length="750.00">
        <lane id="TL02TL1_0" index="0" speed="13.89" length="750.00" shape="16.80,-11.20 733.20,-11.20"/>
        <lane id="TL02TL1_1" index="1" speed="13.89" length="750.00" shape="16.80,-8.00 733.20,-8.00"/>
        <lane id="TL02TL1_2" index="2" speed="13.89" length="750.00" shape="16.80,-4.80 733.20,-4.80"/>
        <lane id="TL02TL1_3" index="3" speed="13.89" length="750.00" shape="16.80,-1.60 733.20,-1.60"/>
    </edge>
    <edge id="TL02TL2" from="TL0" to="TL2" priority="-1" length="750.00">
        <lane id="TL02TL2_0" index="0" speed="13.89" length="750.00" shape="11.20,16.80 11.20,383.20"/>
        <lane id="TL02TL2_1" index="1" speed="13.89" length="750.00" shape="8.00,16.80 8.00,383.20"/>
        <lane id="TL02TL2_2" index="2" speed="13.89" length="750.00" shape="4.80,16.80 4.80,383.20"/>
        <lane id="TL02TL2_3" index="3" speed="13.89" length="750.00" shape="1.60,16.80 1.60,383.20"/>
    </edge>
    <edge id="TL02W" from="TL0" to="DW" priority="-1" length="750.00">
        <lane id="TL02W_0" index="0" speed="13.89" length="750.00" shape="-16.80,11.20 -750.00,11.20"/>
        <lane id="TL02W_1" index="1" speed="13.89" length="750.00" shape="-16.80,8.00 -750.00,8.00"/>
        <lane id="TL02W_2" index="2" speed="13.89" length="750.00" shape="-16.80,4.80 -750.00,4.80"/>
        <lane id="TL02W_3" index="3" speed="13.89" length="750.00" shape="-16.80,1.60 -750.00,1.60"/>
    </edge>
    <edge id="TL12E" from="TL1" to="J0" priority="-1">
        <lane id="TL12E_0" index="0" speed="13.89" length="733.20" shape="766.80,-11.20 1500.00,-11.20"/>
        <lane id="TL12E_1" index="1" speed="13.89" length="733.20" shape="766.80,-8.00 1500.00,-8.00"/>
        <lane id="TL12E_2" index="2" speed="13.89" length="733.20" shape="766.80,-4.80 1500.00,-4.80"/>
        <lane id="TL12E_3" index="3" speed="13.89" length="733.20" shape="766.80,-1.60 1500.00,-1.60"/>
    </edge>
    <edge id="TL12S" from="TL1" to="J2" priority="-1">
        <lane id="TL12S_0" index="0" speed="13.89" length="733.20" shape="738.80,-16.80 738.80,-750.00"/>
        <lane id="TL12S_1" index="1" speed="13.89" length="733.20" shape="742.00,-16.80 742.00,-750.00"/>
        <lane id="TL12S_2" index="2" speed="13.89" length="733.20" shape="745.20,-16.80 745.20,-750.00"/>
        <lane id="TL12S_3" index="3" speed="13.89" length="733.20" shape="748.40,-16.80 748.40,-750.00"/>
    </edge>
    <edge id="TL12TL0" from="TL1" to="TL0" priority="-1" length="750.00">
        <lane id="TL12TL0_0" index="0" speed="13.89" length="750.00" shape="733.20,11.20 16.80,11.20"/>
        <lane id="TL12TL0_1" index="1" speed="13.89" length="750.00" shape="733.20,8.00 16.80,8.00"/>
        <lane id="TL12TL0_2" index="2" speed="13.89" length="750.00" shape="733.20,4.80 16.80,4.80"/>
        <lane id="TL12TL0_3" index="3" speed="13.89" length="750.00" shape="733.20,1.60 16.80,1.60"/>
    </edge>
    <edge id="TL12TL3" from="TL1" to="TL3" priority="-1">
        <lane id="TL12TL3_0" index="0" speed="13.89" length="366.40" shape="761.20,16.80 761.20,383.20"/>
        <lane id="TL12TL3_1" index="1" speed="13.89" length="366.40" shape="758.00,16.80 758.00,383.20"/>
        <lane id="TL12TL3_2" index="2" speed="13.89" length="366.40" shape="754.80,16.80 754.80,383.20"/>
        <lane id="TL12TL3_3" index="3" speed="13.89" length="366.40" shape="751.60,16.80 751.60,383.20"/>
    </edge>
    <edge id="TL22N" from="TL2" to="J3" priority="-1">
        <lane id="TL22N_0" index="0" speed="13.89" length="383.20" shape="11.20,416.80 11.20,800.00"/>
        <lane id="TL22N_1" index="1" speed="13.89" length="383.20" shape="8.00,416.80 8.00,800.00"/>
        <lane id="TL22N_2" index="2" speed="13.89" length="383.20" shape="4.80,416.80 4.80,800.00"/>
        <lane id="TL22N_3" index="3" speed="13.89" length="383.20" shape="1.60,416.80 1.60,800.00"/>
    </edge>
    <edge id="TL22TL0" from="TL2" to="TL0" priority="-1" length="750.00">
        <lane id="TL22TL0_0" index="0" speed="13.89" length="750.00" shape="-11.20,383.20 -11.20,16.80"/>
        <lane id="TL22TL0_1" index="1" speed="13.89" length="750.00" shape="-8.00,383.20 -8.00,16.80"/>
        <lane id="TL22TL0_2" index="2" speed="13.89" length="750.00" shape="-4.80,383.20 -4.80,16.80"/>
        <lane id="TL22TL0_3" index="3" speed="13.89" length="750.00" shape="-1.60,383.20 -1.60,16.80"/>
    </edge>
    <edge id="TL22TL3" from="TL2" to="TL3" priority="-1">
        <lane id="TL22TL3_0" index="0" speed="13.89" length="716.40" shape="16.80,388.80 733.20,388.80"/>
        <lane id="TL22TL3_1" index="1" speed="13.89" length="716.40" shape="16.80,392.00 733.20,392.00"/>
        <lane id="TL22TL3_2" index="2" speed="13.89" length="716.40" shape="16.80,395.20 733.20,395.20"/>
        <lane id="TL22TL3_3" index="3" speed="13.89" length="716.40" shape="16.80,398.40 733.20,398.40"/>
    </edge>
    <edge id="TL22W" from="TL2" to="J4" priority="-1">
        <lane id="TL22W_0" index="0" speed="13.89" length="383.20" shape="-16.80,411.20 -400.00,411.20"/>
        <lane id="TL22W_1" index="1" speed="13.89" length="383.20" shape="-16.80,408.00 -400.00,408.00"/>
        <lane id="TL22W_2" index="2" speed="13.89" length="383.20" shape="-16.80,404.80 -400.00,404.80"/>
        <lane id="TL22W_3" index="3" speed="13.89" length="383.20" shape="-16.80,401.60 -400.00,401.60"/>
    </edge>
    <edge id="TL32E" from="TL3" to="J6" priority="-1">
        <lane id="TL32E_0" index="0" speed="13.89" length="383.20" shape="766.80,388.80 1150.00,388.80"/>
        <lane id="TL32E_1" index="1" speed="13.89" length="383.20" shape="766.80,392.00 1150.00,392.00"/>
        <lane id="TL32E_2" index="2" speed="13.89" length="383.20" shape="766.80,395.20 1150.00,395.20"/>
        <lane id="TL32E_3" index="3" speed="13.89" length="383.20" shape="766.80,398.40 1150.00,398.40"/>
    </edge>
    <edge id="TL32N" from="TL3" to="J5" priority="-1">
        <lane id="TL32N_0" index="0" speed="13.89" length="383.20" shape="761.20,416.80 761.20,800.00"/>
        <lane id="TL32N_1" index="1" speed="13.89" length="383.20" shape="758.00,416.80 758.00,800.00"/>
        <lane id="TL32N_2" index="2" speed="13.89" length="383.20" shape="754.80,416.80 754.80,800.00"/>
        <lane id="TL32N_3" index="3" speed="13.89" length="383.20" shape="751.60,416.80 751.60,800.00"/>
    </edge>
    <edge id="TL32TL1" from="TL3" to="TL1" priority="-1" length="750.00">
        <lane id="TL32TL1_0" index="0" speed="13.89" length="750.00" shape="738.80,383.20 738.80,16.80"/>
        <lane id="TL32TL1_1" index="1" speed="13.89" length="750.00" shape="742.00,383.20 742.00,16.80"/>
        <lane id="TL32TL1_2" index="2" speed="13.89" length="750.00" shape="745.20,383.20 745.20,16.80"/>
        <lane id="TL32TL1_3" index="3" speed="13.89" length="750.00" shape="748.40,383.20 748.40,16.80"/>
    </edge>
    <edge id="TL32TL2" from="TL3" to="TL2" priority="-1">
        <lane id="TL32TL2_0" index="0" speed="13.89" length="716.40" shape="733.20,411.20 16.80,411.20"/>
        <lane id="TL32TL2_1" index="1" speed="13.89" length="716.40" shape="733.20,408.00 16.80,408.00"/>
        <lane id="TL32TL2_2" index="2" speed="13.89" length="716.40" shape="733.20,404.80 16.80,404.80"/>
        <lane id="TL32TL2_3" index="3" speed="13.89" length="716.40" shape="733.20,401.60 16.80,401.60"/>
    </edge>
    <edge id="W2TL0" from="DW" to="TL0" priority="-1" length="750.00">
        <lane id="W2TL0_0" index="0" speed="13.89" length="750.00" shape="-750.00,-11.20 -16.80,-11.20"/>
        <lane id="W2TL0_1" index="1" speed="13.89" length="750.00" shape="-750.00,-8.00 -16.80,-8.00"/>
        <lane id="W2TL0_2" index="2" speed="13.89" length="750.00" shape="-750.00,-4.80 -16.80,-4.80"/>
        <lane id="W2TL0_3" index="3" speed="13.89" length="750.00" shape="-750.00,-1.60 -16.80,-1.60"/>
    </edge>
    <edge id="W2TL2" from="J4" to="TL2" priority="-1">
        <lane id="W2TL2_0" index="0" speed="13.89" length="383.20" shape="-400.00,388.80 -16.80,388.80"/>
        <lane id="W2TL2_1" index="1" speed="13.89" length="383.20" shape="-400.00,392.00 -16.80,392.00"/>
        <lane id="W2TL2_2" index="2" speed="13.89" length="383.20" shape="-400.00,395.20 -16.80,395.20"/>
        <lane id="W2TL2_3" index="3" speed="13.89" length="383.20" shape="-400.00,398.40 -16.80,398.40"/>
    </edge>

    <tlLogic id="TL0" type="static" programID="0" offset="0">
        <phase duration="100" state="GGGGrrrrrrGGGGrrrrrr"/>
        <phase duration="100" state="yyyyrrrrrryyyyrrrrrr"/>
        <phase duration="100" state="rrrrGrrrrrrrrrGrrrrr"/>
        <phase duration="100" state="rrrryrrrrrrrrryrrrrr"/>
        <phase duration="100" state="rrrrrGGGGrrrrrrGGGGr"/>
        <phase duration="100" state="rrrrryyyyrrrrrryyyyr"/>
        <phase duration="100" state="rrrrrrrrrGrrrrrrrrrG"/>
        <phase duration="100" state="rrrrrrrrryrrrrrrrrry"/>
    </tlLogic>
    <tlLogic id="TL1" type="static" programID="0" offset="0">
        <phase duration="33" state="GGGGgrrrrrGGGGgrrrrr"/>
        <phase duration="3"  state="yyyygrrrrryyyygrrrrr"/>
        <phase duration="6"  state="rrrrGrrrrrrrrrGrrrrr"/>
        <phase duration="3"  state="rrrryrrrrrrrrryrrrrr"/>
        <phase duration="33" state="rrrrrGGGGgrrrrrGGGGg"/>
        <phase duration="3"  state="rrrrryyyygrrrrryyyyg"/>
        <phase duration="6"  state="rrrrrrrrrGrrrrrrrrrG"/>
        <phase duration="3"  state="rrrrrrrrryrrrrrrrrry"/>
    </tlLogic>
    <tlLogic id="TL2" type="static" programID="0" offset="0">
        <phase duration="100" state="GGGGrrrrrrGGGGrrrrrr"/>
        <phase duration="100" state="yyyyrrrrrryyyyrrrrrr"/>
        <phase duration="100" state="rrrrGrrrrrrrrrGrrrrr"/>
        <phase duration="100" state="rrrryrrrrrrrrryrrrrr"/>
        <phase duration="100" state="rrrrrGGGGrrrrrrGGGGr"/>
        <phase duration="100" state="rrrrryyyyrrrrrryyyyr"/>
        <phase duration="100" state="rrrrrrrrrGrrrrrrrrrG"/>
        <phase duration="100" state="rrrrrrrrryrrrrrrrrry"/>
    </tlLogic>
    <tlLogic id="TL3" type="static" programID="0" offset="0">
        <phase duration="100" state="GGGGGrrrrrrGGGGrrrrrr"/>
        <phase duration="100" state="yyyyyrrrrrryyyyrrrrrr"/>
        <phase duration="100" state="rrrrrGrrrrrrrrrGrrrrr"/>
        <phase duration="100" state="rrrrryrrrrrrrrryrrrrr"/>
        <phase duration="100" state="rrrrrrGGGGrrrrrrGGGGr"/>
        <phase duration="100" state="rrrrrryyyyrrrrrryyyyr"/>
        <phase duration="100" state="rrrrrrrrrrGrrrrrrrrrG"/>
        <phase duration="100" state="rrrrrrrrrryrrrrrrrrry"/>
    </tlLogic>

    <junction id="DS" type="dead_end" x="0.00" y="-750.00" incLanes="TL02S_0 TL02S_1 TL02S_2 TL02S_3" intLanes="" shape="0.00,-750.00 -12.80,-750.00 0.00,-750.00"/>
    <junction id="DW" type="dead_end" x="-750.00" y="0.00" incLanes="TL02W_0 TL02W_1 TL02W_2 TL02W_3" intLanes="" shape="-750.00,0.00 -750.00,12.80 -750.00,0.00"/>
    <junction id="J0" type="dead_end" x="1500.00" y="0.00" incLanes="TL12E_0 TL12E_1 TL12E_2 TL12E_3" intLanes="" shape="1500.00,0.00 1500.00,-12.80 1500.00,0.00"/>
    <junction id="J2" type="dead_end" x="750.00" y="-750.00" incLanes="TL12S_0 TL12S_1 TL12S_2 TL12S_3" intLanes="" shape="750.00,-750.00 737.20,-750.00 750.00,-750.00"/>
    <junction id="J3" type="dead_end" x="0.00" y="800.00" incLanes="TL22N_0 TL22N_1 TL22N_2 TL22N_3" intLanes="" shape="0.00,800.00 12.80,800.00 0.00,800.00"/>
    <junction id="J4" type="dead_end" x="-400.00" y="400.00" incLanes="TL22W_0 TL22W_1 TL22W_2 TL22W_3" intLanes="" shape="-400.00,400.00 -400.00,412.80 -400.00,400.00"/>
    <junction id="J5" type="dead_end" x="750.00" y="800.00" incLanes="TL32N_0 TL32N_1 TL32N_2 TL32N_3" intLanes="" shape="750.00,800.00 762.80,800.00 750.00,800.00"/>
    <junction id="J6" type="dead_end" x="1150.00" y="400.00" incLanes="TL32E_0 TL32E_1 TL32E_2 TL32E_3" intLanes="" shape="1150.00,400.00 1150.00,387.20 1150.00,400.00"/>