<?xml version="1.0" encoding="UTF-8"?>

<!-- generated on 2025-04-05 19:15:35 by Eclipse SUMO netedit Version 1.21.0
<neteditConfiguration xmlns:xsi="http://www.w3.org/2001/XMLSchema-instance" xsi:noNamespaceSchemaLocation="http://sumo.dlr.de/xsd/neteditConfiguration.xsd">

    <input>
        <sumo-net-file value="C:\Users\oriol\Documents\VIU\TFM\RL-TrafficFlow-BQN\data\network\grid_32inter.net.xml"/>
    </input>

    <output>
        <output-file value="C:\Users\oriol\Documents\VIU\TFM\RL-TrafficFlow-BQN\data\network\grid_32inter.net.xml"/>
    </output>

    <processing>
        <geometry.min-radius.fix.railways value="false"/>
        <geometry.max-grade.fix value="false"/>
        <offset.disable-normalization value="true"/>
        <lefthand value="0"/>
    </processing>

    <junctions>
        <no-turnarounds value="true"/>
        <junctions.corner-detail value="5"/>
        <junctions.limit-turn-speed value="5.50"/>
        <rectangular-lane-cut value="0"/>
    </junctions>

    <pedestrian>
        <walkingareas value="0"/>
    </pedestrian>

</neteditConfiguration>
-->

<net version="1.20" junctionCornerDetail="5" limitTurnSpeed="5.50" xmlns:xsi="http://www.w3.org/2001/XMLSchema-instance" xsi:noNamespaceSchemaLocation="http://sumo.dlr.de/xsd/net_file.xsd">

    <location netOffset="0.00,0.00" convBoundary="0.00,0.00,900.00,900.00" origBoundary="0.00,0.00,900.00,900.00" projParameter="!"/>

    <edge id=":B1_0" function="internal">
        <lane id=":B1_0_0" index="0" speed="6.51" length="9.03" shape="88.80,116.80 88.45,114.35 87.40,112.60 85.65,111.55 83.20,111.20"/>
        <lane id=":B1_0_1" index="1" speed="7.33" length="11.73" shape="88.80,116.80 88.45,112.95 87.40,110.20 85.65,108.55 83.20,108.00"/>
    </edge>
    <edge id=":B1_2" function="internal">
        <lane id=":B1_2_0" index="0" speed="13.89" length="33.60" shape="88.80,116.80 88.80,83.20"/>
        <lane id=":B1_2_1" index="1" speed="13.89" length="33.60" shape="92.00,116.80 92.00,83.20"/>
        <lane id=":B1_2_2" index="2" speed="13.89" length="33.60" shape="95.20,116.80 95.20,83.20"/>
        <lane id=":B1_2_3" index="3" speed="13.89" length="33.60" shape="98.40,116.80 98.40,83.20"/>
    </edge>
    <edge id=":B1_6" function="internal">
        <lane id=":B1_6_0" index="0" speed="6.51" length="9.03" shape="116.80,111.20 114.35,111.55 112.60,112.60 111.55,114.35 111.20,116.80"/>
        <lane id=":B1_6_1" index="1" speed="7.33" length="11.73" shape="116.80,111.20 112.95,111.55 110.20,112.60 108.55,114.35 108.00,116.80"/>
    </edge>
    <edge id=":B1_8" function="internal">
        <lane id=":B1_8_0" index="0" speed="13.89" length="33.60" shape="116.80,111.20 83.20,111.20"/>
        <lane id=":B1_8_1" index="1" speed="13.89" length="33.60" shape="116.80,108.00 83.20,108.00"/>
        <lane id=":B1_8_2" index="2" speed="13.89" length="33.60" shape="116.80,104.80 83.20,104.80"/>
        <lane id=":B1_8_3" index="3" speed="13.89" length="33.60" shape="116.80,101.60 83.20,101.60"/>
    </edge>
    <edge id=":B1_12" function="internal">
        <lane id=":B1_12_0" index="0" speed="6.51" length="9.03" shape="111.20,83.20 111.55,85.65 112.60,87.40 114.35,88.45 116.80,88.80"/>
        <lane id=":B1_12_1" index="1" speed="7.33" length="11.73" shape="111.20,83.20 111.55,87.05 112.60,89.80 114.35,91.45 116.80,92.00"/>
    </edge>
    <edge id=":B1_14" function="internal">
        <lane id=":B1_14_0" index="0" speed="13.89" length="33.60" shape="111.20,83.20 111.20,116.80"/>
        <lane id=":B1_14_1" index="1" speed="13.89" length="33.60" shape="108.00,83.20 108.00,116.80"/>
        <lane id=":B1_14_2" index="2" speed="13.89" length="33.60" shape="104.80,83.20 104.80,116.80"/>
        <lane id=":B1_14_3" index="3" speed="13.89" length="33.60" shape="101.60,83.20 101.60,116.80"/>
    </edge>
    <edge id=":B1_18" function="internal">
        <lane id=":B1_18_0" index="0" speed="6.51" length="9.03" shape="83.20,88.80 85.65,88.45 87.40,87.40 88.45,85.65 88.80,83.20"/>
        <lane id=":B1_18_1" index="1" speed="7.33" length="11.73" shape="83.20,88.80 87.05,88.45 89.80,87.40 91.45,85.65 92.00,83.20"/>
    </edge>
    <edge id=":B1_20" function="internal">
        <lane id=":B1_20_0" index="0" speed="13.89" length="33.60" shape="83.20,88.80 116.80,88.80"/>
        <lane id=":B1_20_1" index="1" speed="13.89" length="33.60" shape="83.20,92.00 116.80,92.00"/>
        <lane id=":B1_20_2" index="2" speed="13.89" length="33.60" shape="83.20,95.20 116.80,95.20"/>
        <lane id=":B1_20_3" index="3" speed="13.89" length="33.60" shape="83.20,98.40 116.80,98.40"/>
    </edge>
    <edge id=":B2_0" function="internal">
        <lane id=":B2_0_0" index="0" speed="6.51" length="9.03" shape="88.80,216.80 88.45,214.35 87.40,212.60 85.65,211.55 83.20,211.20"/>
        <lane id=":B2_0_1" index="1" speed="7.33" length="11.73" shape="88.80,216.80 88.45,212.95 87.40,210.20 85.65,208.55 83.20,208.00"/>
    </edge>
    <edge id=":B2_2" function="internal">
        <lane id=":B2_2_0" index="0" speed="13.89" length="33.60" shape="88.80,216.80 88.80,183.20"/>
        <lane id=":B2_2_1" index="1" speed="13.89" length="33.60" shape="92.00,216.80 92.00,183.20"/>
        <lane id=":B2_2_2" index="2" speed="13.89" length="33.60" shape="95.20,216.80 95.20,183.20"/>
        <lane id=":B2_2_3" index="3" speed="13.89" length="33.60" shape="98.40,216.80 98.40,183.20"/>
    </edge>
    <edge id=":B2_6" function="internal">
        <lane id=":B2_6_0" index="0" speed="6.51" length="9.03" shape="116.80,211.20 114.35,211.55 112.60,212.60 111.55,214.35 111.20,216.80"/>
        <lane id=":B2_6_1" index="1" speed="7.33" length="11.73" shape="116.80,211.20 112.95,211.55 110.20,212.60 108.55,214.35 108.00,216.80"/>
    </edge>
    <edge id=":B2_8" function="internal">
        <lane id=":B2_8_0" index="0" speed="13.89" length="33.60" shape="116.80,211.20 83.20,211.20"/>
        <lane id=":B2_8_1" index="1" speed="13.89" length="33.60" shape="116.80,208.00 83.20,208.00"/>
        <lane id=":B2_8_2" index="2" speed="13.89" length="33.60" shape="116.80,204.80 83.20,204.80"/>
        <lane id=":B2_8_3" index="3" speed="13.89" length="33.60" shape="116.80,201.60 83.20,201.60"/>
    </edge>
    <edge id=":B2_12" function="internal">
        <lane id=":B2_12_0" index="0" speed="6.51" length="9.03" shape="111.20,183.20 111.55,185.65 112.60,187.40 114.35,188.45 116.80,188.80"/>
        <lane id=":B2_12_1" index="1" speed="7.33" length="11.73" shape="111.20,183.20 111.55,187.05 112.60,189.80 114.35,191.45 116.80,192.00"/>
    </edge>
    <edge id=":B2_14" function="internal">
        <lane id=":B2_14_0" index="0" speed="13.89" length="33.60" shape="111.20,183.20 111.20,216.80"/>
        <lane id=":B2_14_1" index="1" speed="13.89" length="33.60" shape="108.00,183.20 108.00,216.80"/>
        <lane id=":B2_14_2" index="2" speed="13.89" length="33.60" shape="104.80,183.20 104.80,216.80"/>
        <lane id=":B2_14_3" index="3" speed="13.89" length="33.60" shape="101.60,183.20 101.60,216.80"/>
    </edge>
    <edge id=":B2_18" function="internal">
        <lane id=":B2_18_0" index="0" speed="6.51" length="9.03" shape="83.20,188.80 85.65,188.45 87.40,187.40 88.45,185.65 88.80,183.20"/>
        <lane id=":B2_18_1" index="1" speed="7.33" length="11.73" shape="83.20,188.80 87.05,188.45 89.80,187.40 91.45,185.65 92.00,183.20"/>
    </edge>
    <edge id=":B2_20" function="internal">
        <lane id=":B2_20_0" index="0" speed="13.89" length="33.60" shape="83.20,188.80 116.80,188.80"/>
        <lane id=":B2_20_1" index="1" speed="13.89" length="33.60" shape="83.20,192.00 116.80,192.00"/>
        <lane id=":B2_20_2" index="2" speed="13.89" length="33.60" shape="83.20,195.20 116.80,195.20"/>
        <lane id=":B2_20_3" index="3" speed="13.89" length="33.60" shape="83.20,198.40 116.80,198.40"/>
    </edge>
    <edge id=":B3_0" function="internal">
        <lane id=":B3_0_0" index="0" speed="6.51" length="9.03" shape="88.80,316.80 88.45,314.35 87.40,312.60 85.65,311.55 83.20,311.20"/>
        <lane id=":B3_0_1" index="1" speed="7.33" length="11.73" shape="88.80,316.80 88.45,312.95 87.40,310.20 85.65,308.55 83.20,308.00"/>
    </edge>
    <edge id=":B3_2" function="internal">
        <lane id=":B3_2_0" index="0" speed="13.89" length="33.60" shape="88.80,316.80 88.80,283.20"/>
        <lane id=":B3_2_1" index="1" speed="13.89" length="33.60" shape="92.00,316.80 92.00,283.20"/>
        <lane id=":B3_2_2" index="2" speed="13.89" length="33.60" shape="95.20,316.80 95.20,283.20"/>
        <lane id=":B3_2_3" index="3" speed="13.89" length="33.60" shape="98.40,316.80 98.40,283.20"/>
    </edge>
    <edge id=":B3_6" function="internal">
        <lane id=":B3_6_0" index="0" speed="6.51" length="9.03" shape="116.80,311.20 114.35,311.55 112.60,312.60 111.55,314.35 111.20,316.80"/>
        <lane id=":B3_6_1" index="1" speed="7.33" length="11.73" shape="116.80,311.20 112.95,311.55 110.20,312.60 108.55,314.35 108.00,316.80"/>
    </edge>
    <edge id=":B3_8" function="internal">
        <lane id=":B3_8_0" index="0" speed="13.89" length="33.60" shape="116.80,311.20 83.20,311.20"/>
        <lane id=":B3_8_1" index="1" speed="13.89" length="33.60" shape="116.80,308.00 83.20,308.00"/>
        <lane id=":B3_8_2" index="2" speed="13.89" length="33.60" shape="116.80,304.80 83.20,304.80"/>
        <lane id=":B3_8_3" index="3" speed="13.89" length="33.60" shape="116.80,301.60 83.20,301.60"/>
    </edge>
    <edge id=":B3_12" function="internal">
        <lane id=":B3_12_0" index="0" speed="6.51" length="9.03" shape="111.20,283.20 111.55,285.65 112.60,287.40 114.35,288.45 116.80,288.80"/>
        <lane id=":B3_12_1" index="1" speed="7.33" length="11.73" shape="111.20,283.20 111.55,287.05 112.60,289.80 114.35,291.45 116.80,292.00"/>
    </edge>
    <edge id=":B3_14" function="internal">
        <lane id=":B3_14_0" index="0" speed="13.89" length="33.60" shape="111.20,283.20 111.20,316.80"/>
        <lane id=":B3_14_1" index="1" speed="13.89" length="33.60" shape="108.00,283.20 108.00,316.80"/>
        <lane id=":B3_14_2" index="2" speed="13.89" length="33.60" shape="104.80,283.20 104.80,316.80"/>
        <lane id=":B3_14_3" index="3" speed="13.89" length="33.60" shape="101.60,283.20 101.60,316.80"/>
    </edge>
    <edge id=":B3_18" function="internal">
        <lane id=":B3_18_0" index="0" speed="6.51" length="9.03" shape="83.20,288.80 85.65,288.45 87.40,287.40 88.45,285.65 88.80,283.20"/>
        <lane id=":B3_18_1" index="1" speed="7.33" length="11.73" shape="83.20,288.80 87.05,288.45 89.80,287.40 91.45,285.65 92.00,283.20"/>
    </edge>
    <edge id=":B3_20" function="internal">
        <lane id=":B3_20_0" index="0" speed="13.89" length="33.60" shape="83.20,288.80 116.80,288.80"/>
        <lane id=":B3_20_1" index="1" speed="13.89" length="33.60" shape="83.20,292.00 116.80,292.00"/>
        <lane id=":B3_20_2" index="2" speed="13.89" length="33.60" shape="83.20,295.20 116.80,295.20"/>
        <lane id=":B3_20_3" index="3" speed="13.89" length="33.60" shape="83.20,298.40 116.80,298.40"/>
    </edge>
    <edge id=":B4_0" function="internal">
        <lane id=":B4_0_0" index="0" speed="6.51" length="9.03" shape="88.80,416.80 88.45,414.35 87.40,412.60 85.65,411.55 83.20,411.20"/>
        <lane id=":B4_0_1" index="1" speed="7.33" length="11.73" shape="88.80,416.80 88.45,412.95 87.40,410.20 85.65,408.55 83.20,408.00"/>
    </edge>
    <edge id=":B4_2" function="internal">
        <lane id=":B4_2_0" index="0" speed="13.89" length="33.60" shape="88.80,416.80 88.80,383.20"/>
        <lane id=":B4_2_1" index="1" speed="13.89" length="33.60" shape="92.00,416.80 92.00,383.20"/>
        <lane id=":B4_2_2" index="2" speed="13.89" length="33.60" shape="95.20,416.80 95.20,383.20"/>
        <lane id=":B4_2_3" index="3" speed="13.89" length="33.60" shape="98.40,416.80 98.40,383.20"/>
    </edge>
    <edge id=":B4_6" function="internal">
        <lane id=":B4_6_0" index="0" speed="6.51" length="9.03" shape="116.80,411.20 114.35,411.55 112.60,412.60 111.55,414.35 111.20,416.80"/>
        <lane id=":B4_6_1" index="1" speed="7.33" length="11.73" shape="116.80,411.20 112.95,411.55 110.20,412.60 108.55,414.35 108.00,416.80"/>
    </edge>
    <edge id=":B4_8" function="internal">
        <lane id=":B4_8_0" index="0" speed="13.89" length="33.60" shape="116.80,411.20 83.20,411.20"/>
        <lane id=":B4_8_1" index="1" speed="13.89" length="33.60" shape="116.80,408.00 83.20,408.00"/>
        <lane id=":B4_8_2" index="2" speed="13.89" length="33.60" shape="116.80,404.80 83.20,404.80"/>
        <lane id=":B4_8_3" index="3" speed="13.89" length="33.60" shape="116.80,401.60 83.20,401.60"/>
    </edge>
    <edge id=":B4_12" function="internal">
        <lane id=":B4_12_0" index="0" speed="6.51" length="9.03" shape="111.20,383.20 111.55,385.65 112.60,387.40 114.35,388.45 116.80,388.80"/>
        <lane id=":B4_12_1" index="1" speed="7.33" length="11.73" shape="111.20,383.20 111.55,387.05 112.60,389.80 114.35,391.45 116.80,392.00"/>
    </edge>
    <edge id=":B4_14" function="internal">
        <lane id=":B4_14_0" index="0" speed="13.89" length="33.60" shape="111.20,383.20 111.20,416.80"/>
        <lane id=":B4_14_1" index="1" speed="13.89" length="33.60" shape="108.00,383.20 108.00,416.80"/>
        <lane id=":B4_14_2" index="2" speed="13.89" length="33.60" shape="104.80,383.20 104.80,416.80"/>
        <lane id=":B4_14_3" index="3" speed="13.89" length="33.60" shape="101.60,383.20 101.60,416.80"/>
    </edge>
    <edge id=":B4_18" function="internal">
        <lane id=":B4_18_0" index="0" speed="6.51" length="9.03" shape="83.20,388.80 85.65,388.45 87.40,387.40 88.45,385.65 88.80,383.20"/>
        <lane id=":B4_18_1" index="1" speed="7.33" length="11.73" shape="83.20,388.80 87.05,388.45 89.80,387.40 91.45,385.65 92.00,383.20"/>
    </edge>
    <edge id=":B4_20" function="internal">
        <lane id=":B4_20_0" index="0" speed="13.89" length="33.60" shape="83.20,388.80 116.80,388.80"/>
        <lane id=":B4_20_1" index="1" speed="13.89" length="33.60" shape="83.20,392.00 116.80,392.00"/>
        <lane id=":B4_20_2" index="2" speed="13.89" length="33.60" shape="83.20,395.20 116.80,395.20"/>
        <lane id=":B4_20_3" index="3" speed="13.89" length="33.60" shape="83.20,398.40 116.80,398.40"/>
    </edge>
    <edge id=":B5_0" function="internal">
        <lane id=":B5_0_0" index="0" speed="6.51" length="9.03" shape="88.80,516.80 88.45,514.35 87.40,512.60 85.65,511.55 83.20,511.20"/>
        <lane id=":B5_0_1" index="1" speed="7.33" length="11.73" shape="88.80,516.80 88.45,512.95 87.40,510.20 85.65,508.55 83.20,508.00"/>
    </edge>
    <edge id=":B5_2" function="internal">
        <lane id=":B5_2_0" index="0" speed="13.89" length="33.60" shape="88.80,516.80 88.80,483.20"/>
        <lane id=":B5_2_1" index="1" speed="13.89" length="33.60" shape="92.00,516.80 92.00,483.20"/>
        <lane id=":B5_2_2" index="2" speed="13.89" length="33.60" shape="95.20,516.80 95.20,483.20"/>
        <lane id=":B5_2_3" index="3" speed="13.89" length="33.60" shape="98.40,516.80 98.40,483.20"/>
    </edge>
    <edge id=":B5_6" function="internal">
        <lane id=":B5_6_0" index="0" speed="6.51" length="9.03" shape="116.80,511.20 114.35,511.55 112.60,512.60 111.55,514.35 111.20,516.80"/>
        <lane id=":B5_6_1" index="1" speed="7.33" length="11.73" shape="116.80,511.20 112.95,511.55 110.20,512.60 108.55,514.35 108.00,516.80"/>
    </edge>
    <edge id=":B5_8" function="internal">
        <lane id=":B5_8_0" index="0" speed="13.89" length="33.60" shape="116.80,511.20 83.20,511.20"/>
        <lane id=":B5_8_1" index="1" speed="13.89" length="33.60" shape="116.80,508.00 83.20,508.00"/>
        <lane id=":B5_8_2" index="2" speed="13.89" length="33.60" shape="116.80,504.80 83.20,504.80"/>
        <lane id=":B5_8_3" index="3" speed="13.89" length="33.60" shape="116.80,501.60 83.20,501.60"/>
    </edge>
    <edge id=":B5_12" function="internal">
        <lane id=":B5_12_0" index="0" speed="6.51" length="9.03" shape="111.20,483.20 111.55,485.65 112.60,487.40 114.35,488.45 116.80,488.80"/>
        <lane id=":B5_12_1" index="1" speed="7.33" length="11.73" shape="111.20,483.20 111.55,487.05 112.60,489.80 114.35,491.45 116.80,492.00"/>
    </edge>
    <edge id=":B5_14" function="internal">
        <lane id=":B5_14_0" index="0" speed="13.89" length="33.60" shape="111.20,483.20 111.20,516.80"/>
        <lane id=":B5_14_1" index="1" speed="13.89" length="33.60" shape="108.00,483.20 108.00,516.80"/>
        <lane id=":B5_14_2" index="2" speed="13.89" length="33.60" shape="104.80,483.20 104.80,516.80"/>
        <lane id=":B5_14_3" index="3" speed="13.89" length="33.60" shape="101.60,483.20 101.60,516.80"/>
    </edge>
    <edge id=":B5_18" function="internal">
        <lane id=":B5_18_0" index="0" speed="6.51" length="9.03" shape="83.20,488.80 85.65,488.45 87.40,487.40 88.45,485.65 88.80,483.20"/>
        <lane id=":B5_18_1" index="1" speed="7.33" length="11.73" shape="83.20,488.80 87.05,488.45 89.80,487.40 91.45,485.65 92.00,483.20"/>
    </edge>
    <edge id=":B5_20" function="internal">
        <lane id=":B5_20_0" index="0" speed="13.89" length="33.60" shape="83.20,488.80 116.80,488.80"/>
        <lane id=":B5_20_1" index="1" speed="13.89" length="33.60" shape="83.20,492.00 116.80,492.00"/>
        <lane id=":B5_20_2" index="2" speed="13.89" length="33.60" shape="83.20,495.20 116.80,495.20"/>
        <lane id=":B5_20_3" index="3" speed="13.89" length="33.60" shape="83.20,498.40 116.80,498.40"/>
    </edge>
    <edge id=":B6_0" function="internal">
        <lane id=":B6_0_0" index="0" speed="6.51" length="9.03" shape="88.80,616.80 88.45,614.35 87.40,612.60 85.65,611.55 83.20,611.20"/>
        <lane id=":B6_0_1" index="1" speed="7.33" length="11.73" shape="88.80,616.80 88.45,612.95 87.40,610.20 85.65,608.55 83.20,608.00"/>
    </edge>
    <edge id=":B6_2" function="internal">
        <lane id=":B6_2_0" index="0" speed="13.89" length="33.60" shape="88.80,616.80 88.80,583.20"/>
        <lane id=":B6_2_1" index="1" speed="13.89" length="33.60" shape="92.00,616.80 92.00,583.20"/>
        <lane id=":B6_2_2" index="2" speed="13.89" length="33.60" shape="95.20,616.80 95.20,583.20"/>
        <lane id=":B6_2_3" index="3" speed="13.89" length="33.60" shape="98.40,616.80 98.40,583.20"/>
    </edge>
    <edge id=":B6_6" function="internal">
        <lane id=":B6_6_0" index="0" speed="6.51" length="9.03" shape="116.80,611.20 114.35,611.55 112.60,612.60 111.55,614.35 111.20,616.80"/>
        <lane id=":B6_6_1" index="1" speed="7.33" length="11.73" shape="116.80,611.20 112.95,611.55 110.20,612.60 108.55,614.35 108.00,616.80"/>
    </edge>
    <edge id=":B6_8" function="internal">
        <lane id=":B6_8_0" index="0" speed="13.89" length="33.60" shape="116.80,611.20 83.20,611.20"/>
        <lane id=":B6_8_1" index="1" speed="13.89" length="33.60" shape="116.80,608.00 83.20,608.00"/>
        <lane id=":B6_8_2" index="2" speed="13.89" length="33.60" shape="116.80,604.80 83.20,604.80"/>
        <lane id=":B6_8_3" index="3" speed="13.89" length="33.60" shape="116.80,601.60 83.20,601.60"/>
    </edge>
    <edge id=":B6_12" function="internal">
        <lane id=":B6_12_0" index="0" speed="6.51" length="9.03" shape="111.20,583.20 111.55,585.65 112.60,587.40 114.35,588.45 116.80,588.80"/>
        <lane id=":B6_12_1" index="1" speed="7.33" length="11.73" shape="111.20,583.20 111.55,587.05 112.60,589.80 114.35,591.45 116.80,592.00"/>
    </edge>
    <edge id=":B6_14" function="internal">
        <lane id=":B6_14_0" index="0" speed="13.89" length="33.60" shape="111.20,583.20 111.20,616.80"/>
        <lane id=":B6_14_1" index="1" speed="13.89" length="33.60" shape="108.00,583.20 108.00,616.80"/>
        <lane id=":B6_14_2" index="2" speed="13.89" length="33.60" shape="104.80,583.20 104.80,616.80"/>
        <lane id=":B6_14_3" index="3" speed="13.89" length="33.60" shape="101.60,583.20 101.60,616.80"/>
    </edge>
    <edge id=":B6_18" function="internal">
        <lane id=":B6_18_0" index="0" speed="6.51" length="9.03" shape="83.20,588.80 85.65,588.45 87.40,587.40 88.45,585.65 88.80,583.20"/>
        <lane id=":B6_18_1" index="1" speed="7.33" length="11.73" shape="83.20,588.80 87.05,588.45 89.80,587.40 91.45,585.65 92.00,583.20"/>
    </edge>
    <edge id=":B6_20" function="internal">
        <lane id=":B6_20_0" index="0" speed="13.89" length="33.60" shape="83.20,588.80 116.80,588.80"/>
        <lane id=":B6_20_1" index="1" speed="13.89" length="33.60" shape="83.20,592.00 116.80,592.00"/>
        <lane id=":B6_20_2" index="2" speed="13.89" length="33.60" shape="83.20,595.20 116.80,595.20"/>
        <lane id=":B6_20_3" index="3" speed="13.89" length="33.60" shape="83.20,598.40 116.80,598.40"/>
    </edge>
    <edge id=":B7_0" function="internal">
        <lane id=":B7_0_0" index="0" speed="6.51" length="9.03" shape="88.80,716.80 88.45,714.35 87.40,712.60 85.65,711.55 83.20,711.20"/>
        <lane id=":B7_0_1" index="1" speed="7.33" length="11.73" shape="88.80,716.80 88.45,712.95 87.40,710.20 85.65,708.55 83.20,708.00"/>
    </edge>
    <edge id=":B7_2" function="internal">
        <lane id=":B7_2_0" index="0" speed="13.89" length="33.60" shape="88.80,716.80 88.80,683.20"/>
        <lane id=":B7_2_1" index="1" speed="13.89" length="33.60" shape="92.00,716.80 92.00,683.20"/>
        <lane id=":B7_2_2" index="2" speed="13.89" length="33.60" shape="95.20,716.80 95.20,683.20"/>
        <lane id=":B7_2_3" index="3" speed="13.89" length="33.60" shape="98.40,716.80 98.40,683.20"/>
    </edge>
    <edge id=":B7_6" function="internal">
        <lane id=":B7_6_0" index="0" speed="6.51" length="9.03" shape="116.80,711.20 114.35,711.55 112.60,712.60 111.55,714.35 111.20,716.80"/>
        <lane id=":B7_6_1" index="1" speed="7.33" length="11.73" shape="116.80,711.20 112.95,711.55 110.20,712.60 108.55,714.35 108.00,716.80"/>
    </edge>
    <edge id=":B7_8" function="internal">
        <lane id=":B7_8_0" index="0" speed="13.89" length="33.60" shape="116.80,711.20 83.20,711.20"/>
        <lane id=":B7_8_1" index="1" speed="13.89" length="33.60" shape="116.80,708.00 83.20,708.00"/>
        <lane id=":B7_8_2" index="2" speed="13.89" length="33.60" shape="116.80,704.80 83.20,704.80"/>
        <lane id=":B7_8_3" index="3" speed="13.89" length="33.60" shape="116.80,701.60 83.20,701.60"/>
    </edge>
    <edge id=":B7_12" function="internal">
        <lane id=":B7_12_0" index="0" speed="6.51" length="9.03" shape="111.20,683.20 111.55,685.65 112.60,687.40 114.35,688.45 116.80,688.80"/>
        <lane id=":B7_12_1" index="1" speed="7.33" length="11.73" shape="111.20,683.20 111.55,687.05 112.60,689.80 114.35,691.45 116.80,692.00"/>
    </edge>
    <edge id=":B7_14" function="internal">
        <lane id=":B7_14_0" index="0" speed="13.89" length="33.60" shape="111.20,683.20 111.20,716.80"/>
        <lane id=":B7_14_1" index="1" speed="13.89" length="33.60" shape="108.00,683.20 108.00,716.80"/>
        <lane id=":B7_14_2" index="2" speed="13.89" length="33.60" shape="104.80,683.20 104.80,716.80"/>
        <lane id=":B7_14_3" index="3" speed="13.89" length="33.60" shape="101.60,683.20 101.60,716.80"/>
    </edge>
    <edge id=":B7_18" function="internal">
        <lane id=":B7_18_0" index="0" speed="6.51" length="9.03" shape="83.20,688.80 85.65,688.45 87.40,687.40 88.45,685.65 88.80,683.20"/>
        <lane id=":B7_18_1" index="1" speed="7.33" length="11.73" shape="83.20,688.80 87.05,688.45 89.80,687.40 91.45,685.65 92.00,683.20"/>
    </edge>
    <edge id=":B7_20" function="internal">
        <lane id=":B7_20_0" index="0" speed="13.89" length="33.60" shape="83.20,688.80 116.80,688.80"/>
        <lane id=":B7_20_1" index="1" speed="13.89" length="33.60" shape="83.20,692.00 116.80,692.00"/>
        <lane id=":B7_20_2" index="2" speed="13.89" length="33.60" shape="83.20,695.20 116.80,695.20"/>
        <lane id=":B7_20_3" index="3" speed="13.89" length="33.60" shape="83.20,698.40 116.80,698.40"/>
    </edge>
    <edge id=":B8_0" function="internal">
        <lane id=":B8_0_0" index="0" speed="6.51" length="9.03" shape="88.80,816.80 88.45,814.35 87.40,812.60 85.65,811.55 83.20,811.20"/>
        <lane id=":B8_0_1" index="1" speed="7.33" length="11.73" shape="88.80,816.80 88.45,812.95 87.40,810.20 85.65,808.55 83.20,808.00"/>
    </edge>
    <edge id=":B8_2" function="internal">
        <lane id=":B8_2_0" index="0" speed="13.89" length="33.60" shape="88.80,816.80 88.80,783.20"/>
        <lane id=":B8_2_1" index="1" speed="13.89" length="33.60" shape="92.00,816.80 92.00,783.20"/>
        <lane id=":B8_2_2" index="2" speed="13.89" length="33.60" shape="95.20,816.80 95.20,783.20"/>
        <lane id=":B8_2_3" index="3" speed="13.89" length="33.60" shape="98.40,816.80 98.40,783.20"/>
    </edge>
    <edge id=":B8_6" function="internal">
        <lane id=":B8_6_0" index="0" speed="6.51" length="9.03" shape="116.80,811.20 114.35,811.55 112.60,812.60 111.55,814.35 111.20,816.80"/>
        <lane id=":B8_6_1" index="1" speed="7.33" length="11.73" shape="116.80,811.20 112.95,811.55 110.20,812.60 108.55,814.35 108.00,816.80"/>
    </edge>
    <edge id=":B8_8" function="internal">
        <lane id=":B8_8_0" index="0" speed="13.89" length="33.60" shape="116.80,811.20 83.20,811.20"/>
        <lane id=":B8_8_1" index="1" speed="13.89" length="33.60" shape="116.80,808.00 83.20,808.00"/>
        <lane id=":B8_8_2" index="2" speed="13.89" length="33.60" shape="116.80,804.80 83.20,804.80"/>
        <lane id=":B8_8_3" index="3" speed="13.89" length="33.60" shape="116.80,801.60 83.20,801.60"/>
    </edge>
    <edge id=":B8_12" function="internal">
        <lane id=":B8_12_0" index="0" speed="6.51" length="9.03" shape="111.20,783.20 111.55,785.65 112.60,787.40 114.35,788.45 116.80,788.80"/>
        <lane id=":B8_12_1" index="1" speed="7.33" length="11.73" shape="111.20,783.20 111.55,787.05 112.60,789.80 114.35,791.45 116.80,792.00"/>
    </edge>
    <edge id=":B8_14" function="internal">
        <lane id=":B8_14_0" index="0" speed="13.89" length="33.60" shape="111.20,783.20 111.20,816.80"/>
        <lane id=":B8_14_1" index="1" speed="13.89" length="33.60" shape="108.00,783.20 108.00,816.80"/>
        <lane id=":B8_14_2" index="2" speed="13.89" length="33.60" shape="104.80,783.20 104.80,816.80"/>
        <lane id=":B8_14_3" index="3" speed="13.89" length="33.60" shape="101.60,783.20 101.60,816.80"/>
    </edge>
    <edge id=":B8_18" function="internal">
        <lane id=":B8_18_0" index="0" speed="6.51" length="9.03" shape="83.20,788.80 85.65,788.45 87.40,787.40 88.45,785.65 88.80,783.20"/>
        <lane id=":B8_18_1" index="1" speed="7.33" length="11.73" shape="83.20,788.80 87.05,788.45 89.80,787.40 91.45,785.65 92.00,783.20"/>
    </edge>
    <edge id=":B8_20" function="internal">
        <lane id=":B8_20_0" index="0" speed="13.89" length="33.60" shape="83.20,788.80 116.80,788.80"/>
        <lane id=":B8_20_1" index="1" speed="13.89" length="33.60" shape="83.20,792.00 116.80,792.00"/>
        <lane id=":B8_20_2" index="2" speed="13.89" length="33.60" shape="83.20,795.20 116.80,795.20"/>
        <lane id=":B8_20_3" index="3" speed="13.89" length="33.60" shape="83.20,798.40 116.80,798.40"/>
    </edge>
    <edge id=":C1_0" function="internal">
        <lane id=":C1_0_0" index="0" speed="6.51" length="9.03" shape="188.80,116.80 188.45,114.35 187.40,112.60 185.65,111.55 183.20,111.20"/>
        <lane id=":C1_0_1" index="1" speed="7.33" length="11.73" shape="188.80,116.80 188.45,112.95 187.40,110.20 185.65,108.55 183.20,108.00"/>
    </edge>
    <edge id=":C1_2" function="internal">
        <lane id=":C1_2_0" index="0" speed="13.89" length="33.60" shape="188.80,116.80 188.80,83.20"/>
        <lane id=":C1_2_1" index="1" speed="13.89" length="33.60" shape="192.00,116.80 192.00,83.20"/>
        <lane id=":C1_2_2" index="2" speed="13.89" length="33.60" shape="195.20,116.80 195.20,83.20"/>
        <lane id=":C1_2_3" index="3" speed="13.89" length="33.60" shape="198.40,116.80 198.40,83.20"/>
    </edge>
    <edge id=":C1_6" function="internal">
        <lane id=":C1_6_0" index="0" speed="6.51" length="9.03" shape="216.80,111.20 214.35,111.55 212.60,112.60 211.55,114.35 211.20,116.80"/>
        <lane id=":C1_6_1" index="1" speed="7.33" length="11.73" shape="216.80,111.20 212.95,111.55 210.20,112.60 208.55,114.35 208.00,116.80"/>
    </edge>
    <edge id=":C1_8" function="internal">
        <lane id=":C1_8_0" index="0" speed="13.89" length="33.60" shape="216.80,111.20 183.20,111.20"/>
        <lane id=":C1_8_1" index="1" speed="13.89" length="33.60" shape="216.80,108.00 183.20,108.00"/>
        <lane id=":C1_8_2" index="2" speed="13.89" length="33.60" shape="216.80,104.80 183.20,104.80"/>
        <lane id=":C1_8_3" index="3" speed="13.89" length="33.60" shape="216.80,101.60 183.20,101.60"/>
    </edge>
    <edge id=":C1_12" function="internal">
        <lane id=":C1_12_0" index="0" speed="6.51" length="9.03" shape="211.20,83.20 211.55,85.65 212.60,87.40 214.35,88.45 216.80,88.80"/>
        <lane id=":C1_12_1" index="1" speed="7.33" length="11.73" shape="211.20,83.20 211.55,87.05 212.60,89.80 214.35,91.45 216.80,92.00"/>
    </edge>
    <edge id=":C1_14" function="internal">
        <lane id=":C1_14_0" index="0" speed="13.89" length="33.60" shape="211.20,83.20 211.20,116.80"/>
        <lane id=":C1_14_1" index="1" speed="13.89" length="33.60" shape="208.00,83.20 208.00,116.80"/>
        <lane id=":C1_14_2" index="2" speed="13.89" length="33.60" shape="204.80,83.20 204.80,116.80"/>
        <lane id=":C1_14_3" index="3" speed="13.89" length="33.60" shape="201.60,83.20 201.60,116.80"/>
    </edge>
    <edge id=":C1_18" function="internal">
        <lane id=":C1_18_0" index="0" speed="6.51" length="9.03" shape="183.20,88.80 185.65,88.45 187.40,87.40 188.45,85.65 188.80,83.20"/>
        <lane id=":C1_18_1" index="1" speed="7.33" length="11.73" shape="183.20,88.80 187.05,88.45 189.80,87.40 191.45,85.65 192.00,83.20"/>