<?xml version="1.0" encoding="UTF-8"?>

<!-- generated on 2025-03-24 19:22:13 by Eclipse SUMO netedit Version 1.21.0
<neteditConfiguration xmlns:xsi="http://www.w3.org/2001/XMLSchema-instance" xsi:noNamespaceSchemaLocation="http://sumo.dlr.de/xsd/neteditConfiguration.xsd">

    <input>
        <sumo-net-file value="C:\Users\oriol\Documents\VIU\TFM\RL-TrafficFlow-BQN\data\network\grid_1inter_leftTL.net.xml"/>
    </input>

    <output>
        <output-file value="C:\Users\oriol\Documents\VIU\TFM\RL-TrafficFlow-BQN\data\network\grid_1inter_leftTL.net.xml"/>
    </output>

    <processing>
        <geometry.min-radius.fix.railways value="false"/>
        <geometry.max-grade.fix value="false"/>
        <offset.disable-normalization value="true"/>
        <lefthand value="0"/>
    </processing>

    <junctions>
        <no-turnarounds value="true"/>
        <junctions.corner-detail value="5"/>
        <junctions.limit-turn-speed value="5.50"/>
        <rectangular-lane-cut value="0"/>
    </junctions>

    <pedestrian>
        <walkingareas value="0"/>
    </pedestrian>

</neteditConfiguration>
-->

<net version="1.20" junctionCornerDetail="5" limitTurnSpeed="5.50" xmlns:xsi="http://www.w3.org/2001/XMLSchema-instance" xsi:noNamespaceSchemaLocation="http://sumo.dlr.de/xsd/net_file.xsd">

    <location netOffset="3.20,3.20" convBoundary="3.20,3.20,203.20,203.20" origBoundary="0.00,0.00,300.00,300.00" projParameter="!"/>

    <edge id=":A1B1.40.00_0" function="internal">
        <lane id=":A1B1.40.00_0_0" index="0" speed="13.89" length="8.20" shape="39.20,92.00 47.20,92.00"/>
        <lane id=":A1B1.40.00_0_1" index="1" speed="13.89" length="8.20" shape="39.20,95.20 47.20,95.20"/>
        <lane id=":A1B1.40.00_0_2" index="2" speed="13.89" length="8.20" shape="39.20,98.40 47.20,98.40"/>
        <lane id=":A1B1.40.00_0_3" index="3" speed="13.89" length="8.20" shape="39.20,98.40 41.66,98.90 43.20,100.00 44.74,101.10 47.20,101.60"/>
    </edge>
    <edge id=":B0B1.40.00_0" function="internal">
        <lane id=":B0B1.40.00_0_0" index="0" speed="13.89" length="8.20" shape="114.40,39.20 114.40,47.20"/>
        <lane id=":B0B1.40.00_0_1" index="1" speed="13.89" length="8.20" shape="111.20,39.20 111.20,47.20"/>
        <lane id=":B0B1.40.00_0_2" index="2" speed="13.89" length="8.20" shape="108.00,39.20 108.00,47.20"/>
        <lane id=":B0B1.40.00_0_3" index="3" speed="13.89" length="8.20" shape="108.00,39.20 107.50,41.66 106.40,43.20 105.30,44.74 104.80,47.20"/>
    </edge>
    <edge id=":B1_0" function="internal">
        <lane id=":B1_0_0" index="0" speed="6.51" length="9.03" shape="92.00,120.00 91.65,117.55 90.60,115.80 88.85,114.75 86.40,114.40"/>
    </edge>
    <edge id=":B1_1" function="internal">
        <lane id=":B1_1_0" index="0" speed="13.89" length="33.60" shape="92.00,120.00 92.00,86.40"/>
        <lane id=":B1_1_1" index="1" speed="13.89" length="33.60" shape="95.20,120.00 95.20,86.40"/>
        <lane id=":B1_1_2" index="2" speed="13.89" length="33.60" shape="98.40,120.00 98.40,86.40"/>
    </edge>
    <edge id=":B1_4" function="internal">
        <lane id=":B1_4_0" index="0" speed="11.84" length="15.46" shape="101.60,120.00 102.75,110.55 105.45,105.26"/>
    </edge>
    <edge id=":B1_20" function="internal">
        <lane id=":B1_20_0" index="0" speed="11.84" length="16.84" shape="105.45,105.26 106.20,103.80 111.95,99.75 120.00,98.40"/>
    </edge>
    <edge id=":B1_5" function="internal">
        <lane id=":B1_5_0" index="0" speed="6.51" length="9.03" shape="120.00,114.40 117.55,114.75 115.80,115.80 114.75,117.55 114.40,120.00"/>
    </edge>
    <edge id=":B1_6" function="internal">
        <lane id=":B1_6_0" index="0" speed="13.89" length="33.60" shape="120.00,114.40 86.40,114.40"/>
        <lane id=":B1_6_1" index="1" speed="13.89" length="33.60" shape="120.00,111.20 86.40,111.20"/>
        <lane id=":B1_6_2" index="2" speed="13.89" length="33.60" shape="120.00,108.00 86.40,108.00"/>
    </edge>
    <edge id=":B1_9" function="internal">
        <lane id=":B1_9_0" index="0" speed="11.84" length="15.46" shape="120.00,104.80 110.55,103.65 105.26,100.95"/>
    </edge>
    <edge id=":B1_21" function="internal">
        <lane id=":B1_21_0" index="0" speed="11.84" length="16.84" shape="105.26,100.95 103.80,100.20 99.75,94.45 98.40,86.40"/>
    </edge>
    <edge id=":B1_10" function="internal">
        <lane id=":B1_10_0" index="0" speed="6.51" length="9.03" shape="114.40,86.40 114.75,88.85 115.80,90.60 117.55,91.65 120.00,92.00"/>
    </edge>
    <edge id=":B1_11" function="internal">
        <lane id=":B1_11_0" index="0" speed="13.89" length="33.60" shape="114.40,86.40 114.40,120.00"/>
        <lane id=":B1_11_1" index="1" speed="13.89" length="33.60" shape="111.20,86.40 111.20,120.00"/>
        <lane id=":B1_11_2" index="2" speed="13.89" length="33.60" shape="108.00,86.40 108.00,120.00"/>
    </edge>
    <edge id=":B1_14" function="internal">
        <lane id=":B1_14_0" index="0" speed="11.84" length="15.46" shape="104.80,86.40 103.65,95.85 100.95,101.14"/>
    </edge>
    <edge id=":B1_22" function="internal">
        <lane id=":B1_22_0" index="0" speed="11.84" length="16.84" shape="100.95,101.14 100.20,102.60 94.45,106.65 86.40,108.00"/>
    </edge>
    <edge id=":B1_15" function="internal">
        <lane id=":B1_15_0" index="0" speed="6.51" length="9.03" shape="86.40,92.00 88.85,91.65 90.60,90.60 91.65,88.85 92.00,86.40"/>
    </edge>
    <edge id=":B1_16" function="internal">
        <lane id=":B1_16_0" index="0" speed="13.89" length="33.60" shape="86.40,92.00 120.00,92.00"/>
        <lane id=":B1_16_1" index="1" speed="13.89" length="33.60" shape="86.40,95.20 120.00,95.20"/>
        <lane id=":B1_16_2" index="2" speed="13.89" length="33.60" shape="86.40,98.40 120.00,98.40"/>
    </edge>
    <edge id=":B1_19" function="internal">
        <lane id=":B1_19_0" index="0" speed="11.84" length="15.46" shape="86.40,101.60 95.85,102.75 101.14,105.45"/>
    </edge>
    <edge id=":B1_23" function="internal">
        <lane id=":B1_23_0" index="0" speed="11.84" length="16.84" shape="101.14,105.45 102.60,106.20 106.65,111.95 108.00,120.00"/>
    </edge>
    <edge id=":B1A1.40.00_0" function="internal">
        <lane id=":B1A1.40.00_0_0" index="0" speed="13.89" length="8.20" shape="67.20,114.40 59.20,114.40"/>
        <lane id=":B1A1.40.00_0_1" index="1" speed="13.89" length="8.20" shape="67.20,111.20 59.20,111.20"/>
        <lane id=":B1A1.40.00_0_2" index="2" speed="13.89" length="8.20" shape="67.20,108.00 59.20,108.00"/>
        <lane id=":B1A1.40.00_0_3" index="3" speed="13.89" length="8.20" shape="67.20,108.00 64.74,107.50 63.20,106.40 61.66,105.30 59.20,104.80"/>
    </edge>
    <edge id=":B1B0.40.00_0" function="internal">
        <lane id=":B1B0.40.00_0_0" index="0" speed="13.89" length="8.20" shape="92.00,67.20 92.00,59.20"/>
        <lane id=":B1B0.40.00_0_1" index="1" speed="13.89" length="8.20" shape="95.20,67.20 95.20,59.20"/>
        <lane id=":B1B0.40.00_0_2" index="2" speed="13.89" length="8.20" shape="98.40,67.20 98.40,59.20"/>
        <lane id=":B1B0.40.00_0_3" index="3" speed="13.89" length="8.20" shape="98.40,67.20 98.90,64.74 100.00,63.20 101.10,61.66 101.60,59.20"/>
    </edge>
    <edge id=":B1B2.40.00_0" function="internal">
        <lane id=":B1B2.40.00_0_0" index="0" speed="13.89" length="8.20" shape="114.40,139.20 114.40,147.20"/>
        <lane id=":B1B2.40.00_0_1" index="1" speed="13.89" length="8.20" shape="111.20,139.20 111.20,147.20"/>
        <lane id=":B1B2.40.00_0_2" index="2" speed="13.89" length="8.20" shape="108.00,139.20 108.00,147.20"/>
        <lane id=":B1B2.40.00_0_3" index="3" speed="13.89" length="8.20" shape="108.00,139.20 107.50,141.66 106.40,143.20 105.30,144.74 104.80,147.20"/>
    </edge>
    <edge id=":B1C1.40.00_0" function="internal">
        <lane id=":B1C1.40.00_0_0" index="0" speed="13.89" length="8.20" shape="139.20,92.00 147.20,92.00"/>
        <lane id=":B1C1.40.00_0_1" index="1" speed="13.89" length="8.20" shape="139.20,95.20 147.20,95.20"/>
        <lane id=":B1C1.40.00_0_2" index="2" speed="13.89" length="8.20" shape="139.20,98.40 147.20,98.40"/>
        <lane id=":B1C1.40.00_0_3" index="3" speed="13.89" length="8.20" shape="139.20,98.40 141.66,98.90 143.20,100.00 144.74,101.10 147.20,101.60"/>
    </edge>
    <edge id=":B2B1.40.00_0" function="internal">
        <lane id=":B2B1.40.00_0_0" index="0" speed="13.89" length="8.20" shape="92.00,167.20 92.00,159.20"/>
        <lane id=":B2B1.40.00_0_1" index="1" speed="13.89" length="8.20" shape="95.20,167.20 95.20,159.20"/>
        <lane id=":B2B1.40.00_0_2" index="2" speed="13.89" length="8.20" shape="98.40,167.20 98.40,159.20"/>
        <lane id=":B2B1.40.00_0_3" index="3" speed="13.89" length="8.20" shape="98.40,167.20 98.90,164.74 100.00,163.20 101.10,161.66 101.60,159.20"/>
    </edge>
    <edge id=":C1B1.40.00_0" function="internal">
        <lane id=":C1B1.40.00_0_0" index="0" speed="13.89" length="8.20" shape="167.20,114.40 159.20,114.40"/>
        <lane id=":C1B1.40.00_0_1" index="1" speed="13.89" length="8.20" shape="167.20,111.20 159.20,111.20"/>
        <lane id=":C1B1.40.00_0_2" index="2" speed="13.89" length="8.20" shape="167.20,108.00 159.20,108.00"/>
        <lane id=":C1B1.40.00_0_3" index="3" speed="13.89" length="8.20" shape="167.20,108.00 164.74,107.50 163.20,106.40 161.66,105.30 159.20,104.80"/>
    </edge>

    <edge id="A1B1" from="A1" to="A1B1.40.00" priority="-1" shape="3.20,100.00 43.20,100.00">
        <lane id="A1B1_0" index="0" speed="13.89" length="36.00" shape="3.20,92.00 39.20,92.00"/>
        <lane id="A1B1_1" index="1" speed="13.89" length="36.00" shape="3.20,95.20 39.20,95.20"/>
        <lane id="A1B1_2" index="2" speed="13.89" length="36.00" shape="3.20,98.40 39.20,98.40"/>
    </edge>
    <edge id="A1B1.40.00" from="A1B1.40.00" to="B1" priority="-1">
        <lane id="A1B1.40.00_0" index="0" speed="13.89" length="39.20" shape="47.20,92.00 86.40,92.00"/>
        <lane id="A1B1.40.00_1" index="1" speed="13.89" length="39.20" shape="47.20,95.20 86.40,95.20"/>
        <lane id="A1B1.40.00_2" index="2" speed="13.89" length="39.20" shape="47.20,98.40 86.40,98.40"/>
        <lane id="A1B1.40.00_3" index="3" speed="13.89" length="39.20" shape="47.20,101.60 86.40,101.60"/>
    </edge>
    <edge id="B0B1" from="B0" to="B0B1.40.00" priority="-1" shape="106.40,3.20 106.40,43.20">
        <lane id="B0B1_0" index="0" speed="13.89" length="36.00" shape="114.40,3.20 114.40,39.20"/>
        <lane id="B0B1_1" index="1" speed="13.89" length="36.00" shape="111.20,3.20 111.20,39.20"/>
        <lane id="B0B1_2" index="2" speed="13.89" length="36.00" shape="108.00,3.20 108.00,39.20"/>
    </edge>
    <edge id="B0B1.40.00" from="B0B1.40.00" to="B1" priority="-1">
        <lane id="B0B1.40.00_0" index="0" speed="13.89" length="39.20" shape="114.40,47.20 114.40,86.40"/>
        <lane id="B0B1.40.00_1" index="1" speed="13.89" length="39.20" shape="111.20,47.20 111.20,86.40"/>
        <lane id="B0B1.40.00_2" index="2" speed="13.89" length="39.20" shape="108.00,47.20 108.00,86.40"/>
        <lane id="B0B1.40.00_3" index="3" speed="13.89" length="39.20" shape="104.80,47.20 104.80,86.40"/>
    </edge>
    <edge id="B1A1" from="B1" to="B1A1.40.00" priority="-1" shape="103.20,106.40 63.20,106.40">
        <lane id="B1A1_0" index="0" speed="13.89" length="19.20" shape="86.40,114.40 67.20,114.40"/>
        <lane id="B1A1_1" index="1" speed="13.89" length="19.20" shape="86.40,111.20 67.20,111.20"/>
        <lane id="B1A1_2" index="2" speed="13.89" length="19.20" shape="86.40,108.00 67.20,108.00"/>
    </edge>
    <edge id="B1A1.40.00" from="B1A1.40.00" to="A1" priority="-1">
        <lane id="B1A1.40.00_0" index="0" speed="13.89" length="56.00" shape="59.20,114.40 3.20,114.40"/>
        <lane id="B1A1.40.00_1" index="1" speed="13.89" length="56.00" shape="59.20,111.20 3.20,111.20"/>
        <lane id="B1A1.40.00_2" index="2" speed="13.89" length="56.00" shape="59.20,108.00 3.20,108.00"/>
        <lane id="B1A1.40.00_3" index="3" speed="13.89" length="56.00" shape="59.20,104.80 3.20,104.80"/>
    </edge>
    <edge id="B1B0" from="B1" to="B1B0.40.00" priority="-1" shape="100.00,103.20 100.00,63.20">
        <lane id="B1B0_0" index="0" speed="13.89" length="19.20" shape="92.00,86.40 92.00,67.20"/>
        <lane id="B1B0_1" index="1" speed="13.89" length="19.20" shape="95.20,86.40 95.20,67.20"/>
        <lane id="B1B0_2" index="2" speed="13.89" length="19.20" shape="98.40,86.40 98.40,67.20"/>
    </edge>
    <edge id="B1B0.40.00" from="B1B0.40.00" to="B0" priority="-1">
        <lane id="B1B0.40.00_0" index="0" speed="13.89" length="56.00" shape="92.00,59.20 92.00,3.20"/>
        <lane id="B1B0.40.00_1" index="1" speed="13.89" length="56.00" shape="95.20,59.20 95.20,3.20"/>
        <lane id="B1B0.40.00_2" index="2" speed="13.89" length="56.00" shape="98.40,59.20 98.40,3.20"/>
        <lane id="B1B0.40.00_3" index="3" speed="13.89" length="56.00" shape="101.60,59.20 101.60,3.20"/>
    </edge>
    <edge id="B1B2" from="B1" to="B1B2.40.00" priority="-1" shape="106.40,103.20 106.40,143.20">
        <lane id="B1B2_0" index="0" speed="13.89" length="19.20" shape="114.40,120.00 114.40,139.20"/>
        <lane id="B1B2_1" index="1" speed="13.89" length="19.20" shape="111.20,120.00 111.20,139.20"/>
        <lane id="B1B2_2" index="2" speed="13.89" length="19.20" shape="108.00,120.00 108.00,139.20"/>
    </edge>
    <edge id="B1B2.40.00" from="B1B2.40.00" to="B2" priority="-1">
        <lane id="B1B2.40.00_0" index="0" speed="13.89" length="56.00" shape="114.40,147.20 114.40,203.20"/>
        <lane id="B1B2.40.00_1" index="1" speed="13.89" length="56.00" shape="111.20,147.20 111.20,203.20"/>
        <lane id="B1B2.40.00_2" index="2" speed="13.89" length="56.00" shape="108.00,147.20 108.00,203.20"/>
        <lane id="B1B2.40.00_3" index="3" speed="13.89" length="56.00" shape="104.80,147.20 104.80,203.20"/>
    </edge>
    <edge id="B1C1" from="B1" to="B1C1.40.00" priority="-1" shape="103.20,100.00 143.20,100.00">
        <lane id="B1C1_0" index="0" speed="13.89" length="19.20" shape="120.00,92.00 139.20,92.00"/>
        <lane id="B1C1_1" index="1" speed="13.89" length="19.20" shape="120.00,95.20 139.20,95.20"/>
        <lane id="B1C1_2" index="2" speed="13.89" length="19.20" shape="120.00,98.40 139.20,98.40"/>
    </edge>
    <edge id="B1C1.40.00" from="B1C1.40.00" to="C1" priority="-1">
        <lane id="B1C1.40.00_0" index="0" speed="13.89" length="56.00" shape="147.20,92.00 203.20,92.00"/>
        <lane id="B1C1.40.00_1" index="1" speed="13.89" length="56.00" shape="147.20,95.20 203.20,95.20"/>
        <lane id="B1C1.40.00_2" index="2" speed="13.89" length="56.00" shape="147.20,98.40 203.20,98.40"/>
        <lane id="B1C1.40.00_3" index="3" speed="13.89" length="56.00" shape="147.20,101.60 203.20,101.60"/>
    </edge>
    <edge id="B2B1" from="B2" to="B2B1.40.00" priority="-1" shape="100.00,203.20 100.00,163.20">
        <lane id="B2B1_0" index="0" speed="13.89" length="36.00" shape="92.00,203.20 92.00,167.20"/>
        <lane id="B2B1_1" index="1" speed="13.89" length="36.00" shape="95.20,203.20 95.20,167.20"/>
        <lane id="B2B1_2" index="2" speed="13.89" length="36.00" shape="98.40,203.20 98.40,167.20"/>
    </edge>
    <edge id="B2B1.40.00" from="B2B1.40.00" to="B1" priority="-1">
        <lane id="B2B1.40.00_0" index="0" speed="13.89" length="39.20" shape="92.00,159.20 92.00,120.00"/>
        <lane id="B2B1.40.00_1" index="1" speed="13.89" length="39.20" shape="95.20,159.20 95.20,120.00"/>
        <lane id="B2B1.40.00_2" index="2" speed="13.89" length="39.20" shape="98.40,159.20 98.40,120.00"/>
        <lane id="B2B1.40.00_3" index="3" speed="13.89" length="39.20" shape="101.60,159.20 101.60,120.00"/>
    </edge>
    <edge id="C1B1" from="C1" to="C1B1.40.00" priority="-1" shape="203.20,106.40 163.20,106.40">
        <lane id="C1B1_0" index="0" speed="13.89" length="36.00" shape="203.20,114.40 167.20,114.40"/>
        <lane id="C1B1_1" index="1" speed="13.89" length="36.00" shape="203.20,111.20 167.20,111.20"/>
        <lane id="C1B1_2" index="2" speed="13.89" length="36.00" shape="203.20,108.00 167.20,108.00"/>
    </edge>
    <edge id="C1B1.40.00" from="C1B1.40.00" to="B1" priority="-1">
        <lane id="C1B1.40.00_0" index="0" speed="13.89" length="39.20" shape="159.20,114.40 120.00,114.40"/>
        <lane id="C1B1.40.00_1" index="1" speed="13.89" length="39.20" shape="159.20,111.20 120.00,111.20"/>
        <lane id="C1B1.40.00_2" index="2" speed="13.89" length="39.20" shape="159.20,108.00 120.00,108.00"/>
        <lane id="C1B1.40.00_3" index="3" speed="13.89" length="39.20" shape="159.20,104.80 120.00,104.80"/>
    </edge>

    <tlLogic id="B1" type="static" programID="0" offset="0">
        <phase duration="33" state="GGGGgrrrrrGGGGgrrrrr"/>
        <phase duration="3"  state="yyyygrrrrryyyygrrrrr"/>
        <phase duration="6"  state="rrrrGrrrrrrrrrGrrrrr"/>
        <phase duration="3"  state="rrrryrrrrrrrrryrrrrr"/>
        <phase duration="33" state="rrrrrGGGGgrrrrrGGGGg"/>
        <phase duration="3"  state="rrrrryyyygrrrrryyyyg"/>
        <phase duration="6"  state="rrrrrrrrrGrrrrrrrrrG"/>
        <phase duration="3"  state="rrrrrrrrryrrrrrrrrry"/>
    </tlLogic>

    <junction id="A1" type="dead_end" x="3.20" y="103.20" incLanes="B1A1.40.00_0 B1A1.40.00_1 B1A1.40.00_2 B1A1.40.00_3" intLanes="" shape="3.20,100.00 3.20,116.00 3.20,103.20"/>
    <junction id="A1B1.40.00" type="priority" x="43.20" y="103.20" incLanes="A1B1_0 A1B1_1 A1B1_2" intLanes=":A1B1.40.00_0_0 :A1B1.40.00_0_1 :A1B1.40.00_0_2 :A1B1.40.00_0_3" shape="47.20,103.20 47.20,90.40 39.20,90.40 39.20,100.00 42.23,100.83 44.17,102.37 45.41,102.96">
        <request index="0" response="0000" foes="0000" cont="0"/>
        <request index="1" response="0000" foes="0000" cont="0"/>
        <request index="2" response="0000" foes="0000" cont="0"/>
        <request index="3" response="0000" foes="0000" cont="0"/>
    </junction>
    <junction id="B0" type="dead_end" x="103.20" y="3.20" incLanes="B1B0.40.00_0 B1B0.40.00_1 B1B0.40.00_2 B1B0.40.00_3" intLanes="" shape="106.40,3.20 90.40,3.20 103.20,3.20"/>
    <junction id="B0B1.40.00" type="priority" x="103.20" y="43.20" incLanes="B0B1_0 B0B1_1 B0B1_2" intLanes=":B0B1.40.00_0_0 :B0B1.40.00_0_1 :B0B1.40.00_0_2 :B0B1.40.00_0_3" shape="103.20,47.20 116.00,47.20 116.00,39.20 106.40,39.20 105.57,42.23 104.03,44.17 103.44,45.41">
        <request index="0" response="0000" foes="0000" cont="0"/>
        <request index="1" response="0000" foes="0000" cont="0"/>
        <request index="2" response="0000" foes="0000" cont="0"/>
        <request index="3" response="0000" foes="0000" cont="0"/>
    </junction>
    <junction id="B1" type="traffic_light" x="103.20" y="103.20" incLanes="B2B1.40.00_0 B2B1.40.00_1 B2B1.40.00_2 B2B1.40.00_3 C1B1.40.00_0 C1B1.40.00_1 C1B1.40.00_2 C1B1.40.00_3 B0B1.40.00_0 B0B1.40.00_1 B0B1.40.00_2 B0B1.40.00_3 A1B1.40.00_0 A1B1.40.00_1 A1B1.40.00_2 A1B1.40.00_3" intLanes=":B1_0_0 :B1_1_0 :B1_1_1 :B1_1_2 :B1_20_0 :B1_5_0 :B1_6_0 :B1_6_1 :B1_6_2 :B1_21_0 :B1_10_0 :B1_11_0 :B1_11_1 :B1_11_2 :B1_22_0 :B1_15_0 :B1_16_0 :B1_16_1 :B1_16_2 :B1_23_0" shape="90.40,120.00 116.00,120.00 116.44,117.78 117.00,117.00 117.78,116.44 118.78,116.11 120.00,116.00 120.00,90.40 117.78,89.96 117.00,89.40 116.44,88.62 116.11,87.62 116.00,86.40 90.40,86.40 89.96,88.62 89.40,89.40 88.62,89.96 87.62,90.29 86.40,90.40 86.40,116.00 88.62,116.44 89.40,117.00 89.96,117.78 90.29,118.78">
        <request index="0"  response="00000000000000000000" foes="00000000000111000000" cont="0"/>
        <request index="1"  response="10000000001000000000" foes="11111100001111000000" cont="0"/>
        <request index="2"  response="10000000001000000000" foes="11111100001111000000" cont="0"/>
        <request index="3"  response="10000000001000000000" foes="11111100001111000000" cont="0"/>
        <request index="4"  response="10000011101000000000" foes="11110011101111000000" cont="1"/>
        <request index="5"  response="00000011100000000000" foes="00000011100000000000" cont="0"/>
        <request index="6"  response="00000111100000011111" foes="10000111100000011111" cont="0"/>
        <request index="7"  response="00000111100000011111" foes="10000111100000011111" cont="0"/>
        <request index="8"  response="00000111100000011111" foes="10000111100000011111" cont="0"/>
        <request index="9"  response="01110111100000011110" foes="01110111100000011110" cont="1"/>
        <request index="10" response="00000000000000000000" foes="01110000000000000000" cont="0"/>
        <request index="11" response="10000000001000000000" foes="11110000001111110000" cont="0"/>
        <request index="12" response="10000000001000000000" foes="11110000001111110000" cont="0"/>
        <request index="13" response="10000000001000000000" foes="11110000001111110000" cont="0"/>
        <request index="14" response="10000000001000001110" foes="11110000001111001110" cont="1"/>
        <request index="15" response="00000000000000001110" foes="00000000000000001110" cont="0"/>
        <request index="16" response="00000111110000011110" foes="00000111111000011110" cont="0"/>
        <request index="17" response="00000111110000011110" foes="00000111111000011110" cont="0"/>
        <request index="18" response="00000111110000011110" foes="00000111111000011110" cont="0"/>
        <request index="19" response="00000111100111011110" foes="00000111100111011110" cont="1"/>
    </junction>
    <junction id="B1A1.40.00" type="priority" x="63.20" y="103.20" incLanes="B1A1_0 B1A1_1 B1A1_2" intLanes=":B1A1.40.00_0_0 :B1A1.40.00_0_1 :B1A1.40.00_0_2 :B1A1.40.00_0_3" shape="67.20,116.00 67.20,106.40 64.17,105.57 62.23,104.03 60.99,103.44 59.20,103.20 59.20,116.00">
        <request index="0" response="0000" foes="0000" cont="0"/>
        <request index="1" response="0000" foes="0000" cont="0"/>
        <request index="2" response="0000" foes="0000" cont="0"/>
        <request index="3" response="0000" foes="0000" cont="0"/>
    </junction>
    <junction id="B1B0.40.00" type="priority" x="103.20" y="63.20" incLanes="B1B0_0 B1B0_1 B1B0_2" intLanes=":B1B0.40.00_0_0 :B1B0.40.00_0_1 :B1B0.40.00_0_2 :B1B0.40.00_0_3" shape="90.40,67.20 100.00,67.20 100.83,64.17 102.37,62.23 102.96,60.99 103.20,59.20 90.40,59.20">
        <request index="0" response="0000" foes="0000" cont="0"/>
        <request index="1" response="0000" foes="0000" cont="0"/>
        <request index="2" response="0000" foes="0000" cont="0"/>
        <request index="3" response="0000" foes="0000" cont="0"/>
    </junction>
    <junction id="B1B2.40.00" type="priority" x="103.20" y="143.20" incLanes="B1B2_0 B1B2_1 B1B2_2" intLanes=":B1B2.40.00_0_0 :B1B2.40.00_0_1 :B1B2.40.00_0_2 :B1B2.40.00_0_3" shape="103.20,147.20 116.00,147.20 116.00,139.20 106.40,139.20 105.57,142.23 104.03,144.17 103.44,145.41">
        <request index="0" response="0000" foes="0000" cont="0"/>
        <request index="1" response="0000" foes="0000" cont="0"/>
        <request index="2" response="0000" foes="0000" cont="0"/>
        <request index="3" response="0000" foes="0000" cont="0"/>
    </junction>
    <junction id="B1C1.40.00" type="priority" x="143.20" y="103.20" incLanes="B1C1_0 B1C1_1 B1C1_2" intLanes=":B1C1.40.00_0_0 :B1C1.40.00_0_1 :B1C1.40.00_0_2 :B1C1.40.00_0_3" shape="147.20,103.20 147.20,90.40 139.20,90.40 139.20,100.00 142.23,100.83 144.17,102.37 145.41,102.96">
        <request index="0" response="0000" foes="0000" cont="0"/>
        <request index="1" response="0000" foes="0000" cont="0"/>
        <request index="2" response="0000" foes="0000" cont="0"/>
        <request index="3" response="0000" foes="0000" cont="0"/>
    </junction>
    <junction id="B2" type="dead_end" x="103.20" y="203.20" incLanes="B1B2.40.00_0 B1B2.40.00_1 B1B2.40.00_2 B1B2.40.00_3" intLanes="" shape="100.00,203.20 116.00,203.20 103.20,203.20"/>
    <junction id="B2B1.40.00" type="priority" x="103.20" y="163.20" incLanes="B2B1_0 B2B1_1 B2B1_2" intLanes=":B2B1.40.00_0_0 :B2B1.40.00_0_1 :B2B1.40.00_0_2 :B2B1.40.00_0_3" shape="90.40,167.20 100.00,167.20 100.83,164.17 102.37,162.23 102.96,160.99 103.20,159.20 90.40,159.20">
        <request index="0" response="0000" foes="0000" cont="0"/>
        <request index="1" response="0000" foes="0000" cont="0"/>
        <request index="2" response="0000" foes="0000" cont="0"/>
        <request index="3" response="0000" foes="0000" cont="0"/>
    </junction>
    <junction id="C1" type="dead_end" x="203.20" y="103.20" incLanes="B1C1.40.00_0 B1C1.40.00_1 B1C1.40.00_2 B1C1.40.00_3" intLanes="" shape="203.20,106.40 203.20,90.40 203.20,103.20"/>
    <junction id="C1B1.40.00" type="priority" x="163.20" y="103.20" incLanes="C1B1_0 C1B1_1 C1B1_2" intLanes=":C1B1.40.00_0_0 :C1B1.40.00_0_1 :C1B1.40.00_0_2 :C1B1.40.00_0_3" shape="167.20,116.00 167.20,106.40 164.17,105.57 162.23,104.03 160.99,103.44 159.20,103.20 159.20,116.00">
        <request index="0" response="0000" foes="0000" cont="0"/>
        <request index="1" response="0000" foes="0000" cont="0"/>
        <request index="2" response="0000" foes="0000" cont="0"/>
        <request index="3" response="0000" foes="0000" cont="0"/>
    </junction>

    <junction id=":B1_20_0" type="internal" x="105.45" y="105.26" incLanes=":B1_4_0 B0B1.40.00_0 B0B1.40.00_1 B0B1.40.00_2" intLanes=":B1_6_0 :B1_6_1 :B1_6_2 :B1_9_0 :B1_10_0 :B1_11_0 :B1_11_1 :B1_11_2 :B1_16_0 :B1_16_1 :B1_16_2 :B1_19_0"/>
    <junction id=":B1_21_0" type="internal" x="105.26" y="100.95" incLanes=":B1_9_0 A1B1.40.00_0 A1B1.40.00_1 A1B1.40.00_2" intLanes=":B1_1_0 :B1_1_1 :B1_1_2 :B1_4_0 :B1_11_0 :B1_11_1 :B1_11_2 :B1_14_0 :B1_15_0 :B1_16_0 :B1_16_1 :B1_16_2"/>
    <junction id=":B1_22_0" type="internal" x="100.95" y="101.14" incLanes=":B1_14_0 B2B1.40.00_0 B2B1.40.00_1 B2B1.40.00_2" intLanes=":B1_0_0 :B1_1_0 :B1_1_1 :B1_1_2 :B1_6_0 :B1_6_1 :B1_6_2 :B1_9_0 :B1_16_0 :B1_16_1 :B1_16_2 :B1_19_0"/>
    <junction id=":B1_23_0" type="internal" x="101.14" y="105.45" incLanes=":B1_19_0 C1B1.40.00_0 C1B1.40.00_1 C1B1.40.00_2" intLanes=":B1_1_0 :B1_1_1 :B1_1_2 :B1_4_0 :B1_5_0 :B1_6_0 :B1_6_1 :B1_6_2 :B1_11_0 :B1_11_1 :B1_11_2 :B1_14_0"/>

    <connection from="A1B1" to="A1B1.40.00" fromLane="0" toLane="0" via=":A1B1.40.00_0_0" dir="s" state="M"/>
    <connection from="A1B1" to="A1B1.40.00" fromLane="1" toLane="1" via=":A1B1.40.00_0_1" dir="s" state="M"/>
    <connection from="A1B1" to="A1B1.40.00" fromLane="2" toLane="2" via=":A1B1.40.00_0_2" dir="s" state="M"/>
    <connection from="A1B1" to="A1B1.40.00" fromLane="2" toLane="3" via=":A1B1.40.00_0_3" dir="s" state="M"/>
    <connection from="A1B1.40.00" to="B1B0" fromLane="0" toLane="0" via=":B1_15_0" tl="B1" linkIndex="15" dir="r" state="o"/>
    <connection from="A1B1.40.00" to="B1C1" fromLane="0" toLane="0" via=":B1_16_0" tl="B1" linkIndex="16" dir="s" state="o"/>
    <connection from="A1B1.40.00" to="B1C1" fromLane="1" toLane="1" via=":B1_16_1" tl="B1" linkIndex="17" dir="s" state="o"/>
    <connection from="A1B1.40.00" to="B1C1" fromLane="2" toLane="2" via=":B1_16_2" tl="B1" linkIndex="18" dir="s" state="o"/>
    <connection from="A1B1.40.00" to="B1B2" fromLane="3" toLane="2" via=":B1_19_0" tl="B1" linkIndex="19" dir="l" state="o"/>
    <connection from="B0B1" to="B0B1.40.00" fromLane="0" toLane="0" via=":B0B1.40.00_0_0" dir="s" state="M"/>
    <connection from="B0B1" to="B0B1.40.00" fromLane="1" toLane="1" via=":B0B1.40.00_0_1" dir="s" state="M"/>
    <connection from="B0B1" to="B0B1.40.00" fromLane="2" toLane="2" via=":B0B1.40.00_0_2" dir="s" state="M"/>
    <connection from="B0B1" to="B0B1.40.00" fromLane="2" toLane="3" via=":B0B1.40.00_0_3" dir="s" state="M"/>
    <connection from="B0B1.40.00" to="B1C1" fromLane="0" toLane="0" via=":B1_10_0" tl="B1" linkIndex="10" dir="r" state="O"/>
    <connection from="B0B1.40.00" to="B1B2" fromLane="0" toLane="0" via=":B1_11_0" tl="B1" linkIndex="11" dir="s" state="O"/>
    <connection from="B0B1.40.00" to="B1B2" fromLane="1" toLane="1" via=":B1_11_1" tl="B1" linkIndex="12" dir="s" state="O"/>
    <connection from="B0B1.40.00" to="B1B2" fromLane="2" toLane="2" via=":B1_11_2" tl="B1" linkIndex="13" dir="s" state="O"/>
    <connection from="B0B1.40.00" to="B1A1" fromLane="3" toLane="2" via=":B1_14_0" tl="B1" linkIndex="14" dir="l" state="o"/>
    <connection from="B1A1" to="B1A1.40.00" fromLane="0" toLane="0" via=":B1A1.40.00_0_0" dir="s" state="M"/>
    <connection from="B1A1" to="B1A1.40.00" fromLane="1" toLane="1" via=":B1A1.40.00_0_1" dir="s" state="M"/>
    <connection from="B1A1" to="B1A1.40.00" fromLane="2" toLane="2" via=":B1A1.40.00_0_2" dir="s" state="M"/>
    <connection from="B1A1" to="B1A1.40.00" fromLane="2" toLane="3" via=":B1A1.40.00_0_3" dir="s" state="M"/>
    <connection from="B1B0" to="B1B0.40.00" fromLane="0" toLane="0" via=":B1B0.40.00_0_0" dir="s" state="M"/>
    <connection from="B1B0" to="B1B0.40.00" fromLane="1" toLane="1" via=":B1B0.40.00_0_1" dir="s" state="M"/>
    <connection from="B1B0" to="B1B0.40.00" fromLane="2" toLane="2" via=":B1B0.40.00_0_2" dir="s" state="M"/>
    <connection from="B1B0" to="B1B0.40.00" fromLane="2" toLane="3" via=":B1B0.40.00_0_3" dir="s" state="M"/>
    <connection from="B1B2" to="B1B2.40.00" fromLane="0" toLane="0" via=":B1B2.40.00_0_0" dir="s" state="M"/>
    <connection from="B1B2" to="B1B2.40.00" fromLane="1" toLane="1" via=":B1B2.40.00_0_1" dir="s" state="M"/>
    <connection from="B1B2" to="B1B2.40.00" fromLane="2" toLane="2" via=":B1B2.40.00_0_2" dir="s" state="M"/>
    <connection from="B1B2" to="B1B2.40.00" fromLane="2" toLane="3" via=":B1B2.40.00_0_3" dir="s" state="M"/>
    <connection from="B1C1" to="B1C1.40.00" fromLane="0" toLane="0" via=":B1C1.40.00_0_0" dir="s" state="M"/>
    <connection from="B1C1" to="B1C1.40.00" fromLane="1" toLane="1" via=":B1C1.40.00_0_1" dir="s" state="M"/>