<?xml version="1.0" encoding="UTF-8"?>

<!-- generated on 2025-03-31 10:54:02 by Eclipse SUMO netedit Version 1.21.0
<neteditConfiguration xmlns:xsi="http://www.w3.org/2001/XMLSchema-instance" xsi:noNamespaceSchemaLocation="http://sumo.dlr.de/xsd/neteditConfiguration.xsd">

    <input>
        <sumo-net-file value="C:\Users\oriol\Documents\VIU\TFM\RL-TrafficFlow-BQN\data\network\grid_32inter.net.xml"/>
    </input>

    <output>
        <output-file value="C:\Users\oriol\Documents\VIU\TFM\RL-TrafficFlow-BQN\data\network\grid_32inter.net.xml"/>
    </output>

    <processing>
        <geometry.min-radius.fix.railways value="false"/>
        <geometry.max-grade.fix value="false"/>
        <offset.disable-normalization value="true"/>
        <lefthand value="0"/>
    </processing>

    <junctions>
        <no-turnarounds value="true"/>
        <junctions.corner-detail value="5"/>
        <junctions.limit-turn-speed value="5.50"/>
        <rectangular-lane-cut value="0"/>
    </junctions>

    <pedestrian>
        <walkingareas value="0"/>
    </pedestrian>

</neteditConfiguration>
-->

<net version="1.20" junctionCornerDetail="5" limitTurnSpeed="5.50" xmlns:xsi="http://www.w3.org/2001/XMLSchema-instance" xsi:noNamespaceSchemaLocation="http://sumo.dlr.de/xsd/net_file.xsd">

    <location netOffset="0.00,0.00" convBoundary="0.00,0.00,400.00,400.00" origBoundary="0.00,0.00,400.00,400.00" projParameter="!"/>

    <edge id=":B1_0" function="internal">
        <lane id=":B1_0_0" index="0" speed="6.51" length="9.03" shape="88.80,116.80 88.45,114.35 87.40,112.60 85.65,111.55 83.20,111.20"/>
        <lane id=":B1_0_1" index="1" speed="7.33" length="11.73" shape="88.80,116.80 88.45,112.95 87.40,110.20 85.65,108.55 83.20,108.00"/>
    </edge>
    <edge id=":B1_2" function="internal">
        <lane id=":B1_2_0" index="0" speed="13.89" length="33.60" shape="88.80,116.80 88.80,83.20"/>
        <lane id=":B1_2_1" index="1" speed="13.89" length="33.60" shape="92.00,116.80 92.00,83.20"/>
        <lane id=":B1_2_2" index="2" speed="13.89" length="33.60" shape="95.20,116.80 95.20,83.20"/>
        <lane id=":B1_2_3" index="3" speed="13.89" length="33.60" shape="98.40,116.80 98.40,83.20"/>
    </edge>
    <edge id=":B1_6" function="internal">
        <lane id=":B1_6_0" index="0" speed="6.51" length="9.03" shape="116.80,111.20 114.35,111.55 112.60,112.60 111.55,114.35 111.20,116.80"/>
        <lane id=":B1_6_1" index="1" speed="7.33" length="11.73" shape="116.80,111.20 112.95,111.55 110.20,112.60 108.55,114.35 108.00,116.80"/>
    </edge>
    <edge id=":B1_8" function="internal">
        <lane id=":B1_8_0" index="0" speed="13.89" length="33.60" shape="116.80,111.20 83.20,111.20"/>
        <lane id=":B1_8_1" index="1" speed="13.89" length="33.60" shape="116.80,108.00 83.20,108.00"/>
        <lane id=":B1_8_2" index="2" speed="13.89" length="33.60" shape="116.80,104.80 83.20,104.80"/>
        <lane id=":B1_8_3" index="3" speed="13.89" length="33.60" shape="116.80,101.60 83.20,101.60"/>
    </edge>
    <edge id=":B1_12" function="internal">
        <lane id=":B1_12_0" index="0" speed="6.51" length="9.03" shape="111.20,83.20 111.55,85.65 112.60,87.40 114.35,88.45 116.80,88.80"/>
        <lane id=":B1_12_1" index="1" speed="7.33" length="11.73" shape="111.20,83.20 111.55,87.05 112.60,89.80 114.35,91.45 116.80,92.00"/>
    </edge>
    <edge id=":B1_14" function="internal">
        <lane id=":B1_14_0" index="0" speed="13.89" length="33.60" shape="111.20,83.20 111.20,116.80"/>
        <lane id=":B1_14_1" index="1" speed="13.89" length="33.60" shape="108.00,83.20 108.00,116.80"/>
        <lane id=":B1_14_2" index="2" speed="13.89" length="33.60" shape="104.80,83.20 104.80,116.80"/>
        <lane id=":B1_14_3" index="3" speed="13.89" length="33.60" shape="101.60,83.20 101.60,116.80"/>
    </edge>
    <edge id=":B1_18" function="internal">
        <lane id=":B1_18_0" index="0" speed="6.51" length="9.03" shape="83.20,88.80 85.65,88.45 87.40,87.40 88.45,85.65 88.80,83.20"/>
        <lane id=":B1_18_1" index="1" speed="7.33" length="11.73" shape="83.20,88.80 87.05,88.45 89.80,87.40 91.45,85.65 92.00,83.20"/>
    </edge>
    <edge id=":B1_20" function="internal">
        <lane id=":B1_20_0" index="0" speed="13.89" length="33.60" shape="83.20,88.80 116.80,88.80"/>
        <lane id=":B1_20_1" index="1" speed="13.89" length="33.60" shape="83.20,92.00 116.80,92.00"/>
        <lane id=":B1_20_2" index="2" speed="13.89" length="33.60" shape="83.20,95.20 116.80,95.20"/>
        <lane id=":B1_20_3" index="3" speed="13.89" length="33.60" shape="83.20,98.40 116.80,98.40"/>
    </edge>
    <edge id=":B2_0" function="internal">
        <lane id=":B2_0_0" index="0" speed="6.51" length="9.03" shape="88.80,216.80 88.45,214.35 87.40,212.60 85.65,211.55 83.20,211.20"/>
        <lane id=":B2_0_1" index="1" speed="7.33" length="11.73" shape="88.80,216.80 88.45,212.95 87.40,210.20 85.65,208.55 83.20,208.00"/>
    </edge>
    <edge id=":B2_2" function="internal">
        <lane id=":B2_2_0" index="0" speed="13.89" length="33.60" shape="88.80,216.80 88.80,183.20"/>
        <lane id=":B2_2_1" index="1" speed="13.89" length="33.60" shape="92.00,216.80 92.00,183.20"/>
        <lane id=":B2_2_2" index="2" speed="13.89" length="33.60" shape="95.20,216.80 95.20,183.20"/>
        <lane id=":B2_2_3" index="3" speed="13.89" length="33.60" shape="98.40,216.80 98.40,183.20"/>
    </edge>
    <edge id=":B2_6" function="internal">
        <lane id=":B2_6_0" index="0" speed="6.51" length="9.03" shape="116.80,211.20 114.35,211.55 112.60,212.60 111.55,214.35 111.20,216.80"/>
        <lane id=":B2_6_1" index="1" speed="7.33" length="11.73" shape="116.80,211.20 112.95,211.55 110.20,212.60 108.55,214.35 108.00,216.80"/>
    </edge>
    <edge id=":B2_8" function="internal">
        <lane id=":B2_8_0" index="0" speed="13.89" length="33.60" shape="116.80,211.20 83.20,211.20"/>
        <lane id=":B2_8_1" index="1" speed="13.89" length="33.60" shape="116.80,208.00 83.20,208.00"/>
        <lane id=":B2_8_2" index="2" speed="13.89" length="33.60" shape="116.80,204.80 83.20,204.80"/>
        <lane id=":B2_8_3" index="3" speed="13.89" length="33.60" shape="116.80,201.60 83.20,201.60"/>
    </edge>
    <edge id=":B2_12" function="internal">
        <lane id=":B2_12_0" index="0" speed="6.51" length="9.03" shape="111.20,183.20 111.55,185.65 112.60,187.40 114.35,188.45 116.80,188.80"/>
        <lane id=":B2_12_1" index="1" speed="7.33" length="11.73" shape="111.20,183.20 111.55,187.05 112.60,189.80 114.35,191.45 116.80,192.00"/>
    </edge>
    <edge id=":B2_14" function="internal">
        <lane id=":B2_14_0" index="0" speed="13.89" length="33.60" shape="111.20,183.20 111.20,216.80"/>
        <lane id=":B2_14_1" index="1" speed="13.89" length="33.60" shape="108.00,183.20 108.00,216.80"/>
        <lane id=":B2_14_2" index="2" speed="13.89" length="33.60" shape="104.80,183.20 104.80,216.80"/>
        <lane id=":B2_14_3" index="3" speed="13.89" length="33.60" shape="101.60,183.20 101.60,216.80"/>
    </edge>
    <edge id=":B2_18" function="internal">
        <lane id=":B2_18_0" index="0" speed="6.51" length="9.03" shape="83.20,188.80 85.65,188.45 87.40,187.40 88.45,185.65 88.80,183.20"/>
        <lane id=":B2_18_1" index="1" speed="7.33" length="11.73" shape="83.20,188.80 87.05,188.45 89.80,187.40 91.45,185.65 92.00,183.20"/>
    </edge>
    <edge id=":B2_20" function="internal">
        <lane id=":B2_20_0" index="0" speed="13.89" length="33.60" shape="83.20,188.80 116.80,188.80"/>
        <lane id=":B2_20_1" index="1" speed="13.89" length="33.60" shape="83.20,192.00 116.80,192.00"/>
        <lane id=":B2_20_2" index="2" speed="13.89" length="33.60" shape="83.20,195.20 116.80,195.20"/>
        <lane id=":B2_20_3" index="3" speed="13.89" length="33.60" shape="83.20,198.40 116.80,198.40"/>
    </edge>
    <edge id=":B3_0" function="internal">
        <lane id=":B3_0_0" index="0" speed="6.51" length="9.03" shape="88.80,316.80 88.45,314.35 87.40,312.60 85.65,311.55 83.20,311.20"/>
        <lane id=":B3_0_1" index="1" speed="7.33" length="11.73" shape="88.80,316.80 88.45,312.95 87.40,310.20 85.65,308.55 83.20,308.00"/>
    </edge>
    <edge id=":B3_2" function="internal">
        <lane id=":B3_2_0" index="0" speed="13.89" length="33.60" shape="88.80,316.80 88.80,283.20"/>
        <lane id=":B3_2_1" index="1" speed="13.89" length="33.60" shape="92.00,316.80 92.00,283.20"/>
        <lane id=":B3_2_2" index="2" speed="13.89" length="33.60" shape="95.20,316.80 95.20,283.20"/>
        <lane id=":B3_2_3" index="3" speed="13.89" length="33.60" shape="98.40,316.80 98.40,283.20"/>
    </edge>
    <edge id=":B3_6" function="internal">
        <lane id=":B3_6_0" index="0" speed="6.51" length="9.03" shape="116.80,311.20 114.35,311.55 112.60,312.60 111.55,314.35 111.20,316.80"/>
        <lane id=":B3_6_1" index="1" speed="7.33" length="11.73" shape="116.80,311.20 112.95,311.55 110.20,312.60 108.55,314.35 108.00,316.80"/>
    </edge>
    <edge id=":B3_8" function="internal">
        <lane id=":B3_8_0" index="0" speed="13.89" length="33.60" shape="116.80,311.20 83.20,311.20"/>
        <lane id=":B3_8_1" index="1" speed="13.89" length="33.60" shape="116.80,308.00 83.20,308.00"/>
        <lane id=":B3_8_2" index="2" speed="13.89" length="33.60" shape="116.80,304.80 83.20,304.80"/>
        <lane id=":B3_8_3" index="3" speed="13.89" length="33.60" shape="116.80,301.60 83.20,301.60"/>
    </edge>
    <edge id=":B3_12" function="internal">
        <lane id=":B3_12_0" index="0" speed="6.51" length="9.03" shape="111.20,283.20 111.55,285.65 112.60,287.40 114.35,288.45 116.80,288.80"/>
        <lane id=":B3_12_1" index="1" speed="7.33" length="11.73" shape="111.20,283.20 111.55,287.05 112.60,289.80 114.35,291.45 116.80,292.00"/>
    </edge>
    <edge id=":B3_14" function="internal">
        <lane id=":B3_14_0" index="0" speed="13.89" length="33.60" shape="111.20,283.20 111.20,316.80"/>
        <lane id=":B3_14_1" index="1" speed="13.89" length="33.60" shape="108.00,283.20 108.00,316.80"/>
        <lane id=":B3_14_2" index="2" speed="13.89" length="33.60" shape="104.80,283.20 104.80,316.80"/>
        <lane id=":B3_14_3" index="3" speed="13.89" length="33.60" shape="101.60,283.20 101.60,316.80"/>
    </edge>
    <edge id=":B3_18" function="internal">
        <lane id=":B3_18_0" index="0" speed="6.51" length="9.03" shape="83.20,288.80 85.65,288.45 87.40,287.40 88.45,285.65 88.80,283.20"/>
        <lane id=":B3_18_1" index="1" speed="7.33" length="11.73" shape="83.20,288.80 87.05,288.45 89.80,287.40 91.45,285.65 92.00,283.20"/>
    </edge>
    <edge id=":B3_20" function="internal">
        <lane id=":B3_20_0" index="0" speed="13.89" length="33.60" shape="83.20,288.80 116.80,288.80"/>
        <lane id=":B3_20_1" index="1" speed="13.89" length="33.60" shape="83.20,292.00 116.80,292.00"/>
        <lane id=":B3_20_2" index="2" speed="13.89" length="33.60" shape="83.20,295.20 116.80,295.20"/>
        <lane id=":B3_20_3" index="3" speed="13.89" length="33.60" shape="83.20,298.40 116.80,298.40"/>
    </edge>
    <edge id=":C1_0" function="internal">
        <lane id=":C1_0_0" index="0" speed="6.51" length="9.03" shape="188.80,116.80 188.45,114.35 187.40,112.60 185.65,111.55 183.20,111.20"/>
        <lane id=":C1_0_1" index="1" speed="7.33" length="11.73" shape="188.80,116.80 188.45,112.95 187.40,110.20 185.65,108.55 183.20,108.00"/>
    </edge>
    <edge id=":C1_2" function="internal">
        <lane id=":C1_2_0" index="0" speed="13.89" length="33.60" shape="188.80,116.80 188.80,83.20"/>
        <lane id=":C1_2_1" index="1" speed="13.89" length="33.60" shape="192.00,116.80 192.00,83.20"/>
        <lane id=":C1_2_2" index="2" speed="13.89" length="33.60" shape="195.20,116.80 195.20,83.20"/>
        <lane id=":C1_2_3" index="3" speed="13.89" length="33.60" shape="198.40,116.80 198.40,83.20"/>
    </edge>
    <edge id=":C1_6" function="internal">
        <lane id=":C1_6_0" index="0" speed="6.51" length="9.03" shape="216.80,111.20 214.35,111.55 212.60,112.60 211.55,114.35 211.20,116.80"/>
        <lane id=":C1_6_1" index="1" speed="7.33" length="11.73" shape="216.80,111.20 212.95,111.55 210.20,112.60 208.55,114.35 208.00,116.80"/>
    </edge>
    <edge id=":C1_8" function="internal">
        <lane id=":C1_8_0" index="0" speed="13.89" length="33.60" shape="216.80,111.20 183.20,111.20"/>
        <lane id=":C1_8_1" index="1" speed="13.89" length="33.60" shape="216.80,108.00 183.20,108.00"/>
        <lane id=":C1_8_2" index="2" speed="13.89" length="33.60" shape="216.80,104.80 183.20,104.80"/>
        <lane id=":C1_8_3" index="3" speed="13.89" length="33.60" shape="216.80,101.60 183.20,101.60"/>
    </edge>
    <edge id=":C1_12" function="internal">
        <lane id=":C1_12_0" index="0" speed="6.51" length="9.03" shape="211.20,83.20 211.55,85.65 212.60,87.40 214.35,88.45 216.80,88.80"/>
        <lane id=":C1_12_1" index="1" speed="7.33" length="11.73" shape="211.20,83.20 211.55,87.05 212.60,89.80 214.35,91.45 216.80,92.00"/>
    </edge>
    <edge id=":C1_14" function="internal">
        <lane id=":C1_14_0" index="0" speed="13.89" length="33.60" shape="211.20,83.20 211.20,116.80"/>
        <lane id=":C1_14_1" index="1" speed="13.89" length="33.60" shape="208.00,83.20 208.00,116.80"/>
        <lane id=":C1_14_2" index="2" speed="13.89" length="33.60" shape="204.80,83.20 204.80,116.80"/>
        <lane id=":C1_14_3" index="3" speed="13.89" length="33.60" shape="201.60,83.20 201.60,116.80"/>
    </edge>
    <edge id=":C1_18" function="internal">
        <lane id=":C1_18_0" index="0" speed="6.51" length="9.03" shape="183.20,88.80 185.65,88.45 187.40,87.40 188.45,85.65 188.80,83.20"/>
        <lane id=":C1_18_1" index="1" speed="7.33" length="11.73" shape="183.20,88.80 187.05,88.45 189.80,87.40 191.45,85.65 192.00,83.20"/>
    </edge>
    <edge id=":C1_20" function="internal">
        <lane id=":C1_20_0" index="0" speed="13.89" length="33.60" shape="183.20,88.80 216.80,88.80"/>
        <lane id=":C1_20_1" index="1" speed="13.89" length="33.60" shape="183.20,92.00 216.80,92.00"/>
        <lane id=":C1_20_2" index="2" speed="13.89" length="33.60" shape="183.20,95.20 216.80,95.20"/>
        <lane id=":C1_20_3" index="3" speed="13.89" length="33.60" shape="183.20,98.40 216.80,98.40"/>
    </edge>
    <edge id=":C2_0" function="internal">
        <lane id=":C2_0_0" index="0" speed="6.51" length="9.03" shape="188.80,216.80 188.45,214.35 187.40,212.60 185.65,211.55 183.20,211.20"/>
        <lane id=":C2_0_1" index="1" speed="7.33" length="11.73" shape="188.80,216.80 188.45,212.95 187.40,210.20 185.65,208.55 183.20,208.00"/>
    </edge>
    <edge id=":C2_2" function="internal">
        <lane id=":C2_2_0" index="0" speed="13.89" length="33.60" shape="188.80,216.80 188.80,183.20"/>
        <lane id=":C2_2_1" index="1" speed="13.89" length="33.60" shape="192.00,216.80 192.00,183.20"/>
        <lane id=":C2_2_2" index="2" speed="13.89" length="33.60" shape="195.20,216.80 195.20,183.20"/>
        <lane id=":C2_2_3" index="3" speed="13.89" length="33.60" shape="198.40,216.80 198.40,183.20"/>
    </edge>
    <edge id=":C2_6" function="internal">
        <lane id=":C2_6_0" index="0" speed="6.51" length="9.03" shape="216.80,211.20 214.35,211.55 212.60,212.60 211.55,214.35 211.20,216.80"/>
        <lane id=":C2_6_1" index="1" speed="7.33" length="11.73" shape="216.80,211.20 212.95,211.55 210.20,212.60 208.55,214.35 208.00,216.80"/>
    </edge>
    <edge id=":C2_8" function="internal">
        <lane id=":C2_8_0" index="0" speed="13.89" length="33.60" shape="216.80,211.20 183.20,211.20"/>
        <lane id=":C2_8_1" index="1" speed="13.89" length="33.60" shape="216.80,208.00 183.20,208.00"/>
        <lane id=":C2_8_2" index="2" speed="13.89" length="33.60" shape="216.80,204.80 183.20,204.80"/>
        <lane id=":C2_8_3" index="3" speed="13.89" length="33.60" shape="216.80,201.60 183.20,201.60"/>
    </edge>
    <edge id=":C2_12" function="internal">
        <lane id=":C2_12_0" index="0" speed="6.51" length="9.03" shape="211.20,183.20 211.55,185.65 212.60,187.40 214.35,188.45 216.80,188.80"/>
        <lane id=":C2_12_1" index="1" speed="7.33" length="11.73" shape="211.20,183.20 211.55,187.05 212.60,189.80 214.35,191.45 216.80,192.00"/>
    </edge>
    <edge id=":C2_14" function="internal">
        <lane id=":C2_14_0" index="0" speed="13.89" length="33.60" shape="211.20,183.20 211.20,216.80"/>
        <lane id=":C2_14_1" index="1" speed="13.89" length="33.60" shape="208.00,183.20 208.00,216.80"/>
        <lane id=":C2_14_2" index="2" speed="13.89" length="33.60" shape="204.80,183.20 204.80,216.80"/>
        <lane id=":C2_14_3" index="3" speed="13.89" length="33.60" shape="201.60,183.20 201.60,216.80"/>
    </edge>
    <edge id=":C2_18" function="internal">
        <lane id=":C2_18_0" index="0" speed="6.51" length="9.03" shape="183.20,188.80 185.65,188.45 187.40,187.40 188.45,185.65 188.80,183.20"/>
        <lane id=":C2_18_1" index="1" speed="7.33" length="11.73" shape="183.20,188.80 187.05,188.45 189.80,187.40 191.45,185.65 192.00,183.20"/>
    </edge>
    <edge id=":C2_20" function="internal">
        <lane id=":C2_20_0" index="0" speed="13.89" length="33.60" shape="183.20,188.80 216.80,188.80"/>
        <lane id=":C2_20_1" index="1" speed="13.89" length="33.60" shape="183.20,192.00 216.80,192.00"/>
        <lane id=":C2_20_2" index="2" speed="13.89" length="33.60" shape="183.20,195.20 216.80,195.20"/>
        <lane id=":C2_20_3" index="3" speed="13.89" length="33.60" shape="183.20,198.40 216.80,198.40"/>
    </edge>
    <edge id=":C3_0" function="internal">
        <lane id=":C3_0_0" index="0" speed="6.51" length="9.03" shape="188.80,316.80 188.45,314.35 187.40,312.60 185.65,311.55 183.20,311.20"/>
        <lane id=":C3_0_1" index="1" speed="7.33" length="11.73" shape="188.80,316.80 188.45,312.95 187.40,310.20 185.65,308.55 183.20,308.00"/>
    </edge>
    <edge id=":C3_2" function="internal">
        <lane id=":C3_2_0" index="0" speed="13.89" length="33.60" shape="188.80,316.80 188.80,283.20"/>
        <lane id=":C3_2_1" index="1" speed="13.89" length="33.60" shape="192.00,316.80 192.00,283.20"/>
        <lane id=":C3_2_2" index="2" speed="13.89" length="33.60" shape="195.20,316.80 195.20,283.20"/>
        <lane id=":C3_2_3" index="3" speed="13.89" length="33.60" shape="198.40,316.80 198.40,283.20"/>
    </edge>
    <edge id=":C3_6" function="internal">
        <lane id=":C3_6_0" index="0" speed="6.51" length="9.03" shape="216.80,311.20 214.35,311.55 212.60,312.60 211.55,314.35 211.20,316.80"/>
        <lane id=":C3_6_1" index="1" speed="7.33" length="11.73" shape="216.80,311.20 212.95,311.55 210.20,312.60 208.55,314.35 208.00,316.80"/>
    </edge>
    <edge id=":C3_8" function="internal">
        <lane id=":C3_8_0" index="0" speed="13.89" length="33.60" shape="216.80,311.20 183.20,311.20"/>
        <lane id=":C3_8_1" index="1" speed="13.89" length="33.60" shape="216.80,308.00 183.20,308.00"/>
        <lane id=":C3_8_2" index="2" speed="13.89" length="33.60" shape="216.80,304.80 183.20,304.80"/>
        <lane id=":C3_8_3" index="3" speed="13.89" length="33.60" shape="216.80,301.60 183.20,301.60"/>
    </edge>
    <edge id=":C3_12" function="internal">
        <lane id=":C3_12_0" index="0" speed="6.51" length="9.03" shape="211.20,283.20 211.55,285.65 212.60,287.40 214.35,288.45 216.80,288.80"/>
        <lane id=":C3_12_1" index="1" speed="7.33" length="11.73" shape="211.20,283.20 211.55,287.05 212.60,289.80 214.35,291.45 216.80,292.00"/>
    </edge>
    <edge id=":C3_14" function="internal">
        <lane id=":C3_14_0" index="0" speed="13.89" length="33.60" shape="211.20,283.20 211.20,316.80"/>
        <lane id=":C3_14_1" index="1" speed="13.89" length="33.60" shape="208.00,283.20 208.00,316.80"/>
        <lane id=":C3_14_2" index="2" speed="13.89" length="33.60" shape="204.80,283.20 204.80,316.80"/>
        <lane id=":C3_14_3" index="3" speed="13.89" length="33.60" shape="201.60,283.20 201.60,316.80"/>
    </edge>
    <edge id=":C3_18" function="internal">
        <lane id=":C3_18_0" index="0" speed="6.51" length="9.03" shape="183.20,288.80 185.65,288.45 187.40,287.40 188.45,285.65 188.80,283.20"/>
        <lane id=":C3_18_1" index="1" speed="7.33" length="11.73" shape="183.20,288.80 187.05,288.45 189.80,287.40 191.45,285.65 192.00,283.20"/>
    </edge>
    <edge id=":C3_20" function="internal">
        <lane id=":C3_20_0" index="0" speed="13.89" length="33.60" shape="183.20,288.80 216.80,288.80"/>
        <lane id=":C3_20_1" index="1" speed="13.89" length="33.60" shape="183.20,292.00 216.80,292.00"/>
        <lane id=":C3_20_2" index="2" speed="13.89" length="33.60" shape="183.20,295.20 216.80,295.20"/>
        <lane id=":C3_20_3" index="3" speed="13.89" length="33.60" shape="183.20,298.40 216.80,298.40"/>
    </edge>
    <edge id=":D1_0" function="internal">
        <lane id=":D1_0_0" index="0" speed="6.51" length="9.03" shape="288.80,116.80 288.45,114.35 287.40,112.60 285.65,111.55 283.20,111.20"/>
        <lane id=":D1_0_1" index="1" speed="7.33" length="11.73" shape="288.80,116.80 288.45,112.95 287.40,110.20 285.65,108.55 283.20,108.00"/>
    </edge>
    <edge id=":D1_2" function="internal">
        <lane id=":D1_2_0" index="0" speed="13.89" length="33.60" shape="288.80,116.80 288.80,83.20"/>
        <lane id=":D1_2_1" index="1" speed="13.89" length="33.60" shape="292.00,116.80 292.00,83.20"/>
        <lane id=":D1_2_2" index="2" speed="13.89" length="33.60" shape="295.20,116.80 295.20,83.20"/>
        <lane id=":D1_2_3" index="3" speed="13.89" length="33.60" shape="298.40,116.80 298.40,83.20"/>
    </edge>
    <edge id=":D1_6" function="internal">
        <lane id=":D1_6_0" index="0" speed="6.51" length="9.03" shape="316.80,111.20 314.35,111.55 312.60,112.60 311.55,114.35 311.20,116.80"/>
        <lane id=":D1_6_1" index="1" speed="7.33" length="11.73" shape="316.80,111.20 312.95,111.55 310.20,112.60 308.55,114.35 308.00,116.80"/>
    </edge>
    <edge id=":D1_8" function="internal">
        <lane id=":D1_8_0" index="0" speed="13.89" length="33.60" shape="316.80,111.20 283.20,111.20"/>
        <lane id=":D1_8_1" index="1" speed="13.89" length="33.60" shape="316.80,108.00 283.20,108.00"/>
        <lane id=":D1_8_2" index="2" speed="13.89" length="33.60" shape="316.80,104.80 283.20,104.80"/>
        <lane id=":D1_8_3" index="3" speed="13.89" length="33.60" shape="316.80,101.60 283.20,101.60"/>
    </edge>
    <edge id=":D1_12" function="internal">
        <lane id=":D1_12_0" index="0" speed="6.51" length="9.03" shape="311.20,83.20 311.55,85.65 312.60,87.40 314.35,88.45 316.80,88.80"/>
        <lane id=":D1_12_1" index="1" speed="7.33" length="11.73" shape="311.20,83.20 311.55,87.05 312.60,89.80 314.35,91.45 316.80,92.00"/>
    </edge>
    <edge id=":D1_14" function="internal">
        <lane id=":D1_14_0" index="0" speed="13.89" length="33.60" shape="311.20,83.20 311.20,116.80"/>
        <lane id=":D1_14_1" index="1" speed="13.89" length="33.60" shape="308.00,83.20 308.00,116.80"/>
        <lane id=":D1_14_2" index="2" speed="13.89" length="33.60" shape="304.80,83.20 304.80,116.80"/>
        <lane id=":D1_14_3" index="3" speed="13.89" length="33.60" shape="301.60,83.20 301.60,116.80"/>
    </edge>
    <edge id=":D1_18" function="internal">
        <lane id=":D1_18_0" index="0" speed="6.51" length="9.03" shape="283.20,88.80 285.65,88.45 287.40,87.40 288.45,85.65 288.80,83.20"/>
        <lane id=":D1_18_1" index="1" speed="7.33" length="11.73" shape="283.20,88.80 287.05,88.45 289.80,87.40 291.45,85.65 292.00,83.20"/>
    </edge>
    <edge id=":D1_20" function="internal">
        <lane id=":D1_20_0" index="0" speed="13.89" length="33.60" shape="283.20,88.80 316.80,88.80"/>
        <lane id=":D1_20_1" index="1" speed="13.89" length="33.60" shape="283.20,92.00 316.80,92.00"/>
        <lane id=":D1_20_2" index="2" speed="13.89" length="33.60" shape="283.20,95.20 316.80,95.20"/>
        <lane id=":D1_20_3" index="3" speed="13.89" length="33.60" shape="283.20,98.40 316.80,98.40"/>
    </edge>
    <edge id=":D2_0" function="internal">
        <lane id=":D2_0_0" index="0" speed="6.51" length="9.03" shape="288.80,216.80 288.45,214.35 287.40,212.60 285.65,211.55 283.20,211.20"/>
        <lane id=":D2_0_1" index="1" speed="7.33" length="11.73" shape="288.80,216.80 288.45,212.95 287.40,210.20 285.65,208.55 283.20,208.00"/>
    </edge>
    <edge id=":D2_2" function="internal">
        <lane id=":D2_2_0" index="0" speed="13.89" length="33.60" shape="288.80,216.80 288.80,183.20"/>
        <lane id=":D2_2_1" index="1" speed="13.89" length="33.60" shape="292.00,216.80 292.00,183.20"/>
        <lane id=":D2_2_2" index="2" speed="13.89" length="33.60" shape="295.20,216.80 295.20,183.20"/>
        <lane id=":D2_2_3" index="3" speed="13.89" length="33.60" shape="298.40,216.80 298.40,183.20"/>
    </edge>
    <edge id=":D2_6" function="internal">
        <lane id=":D2_6_0" index="0" speed="6.51" length="9.03" shape="316.80,211.20 314.35,211.55 312.60,212.60 311.55,214.35 311.20,216.80"/>
        <lane id=":D2_6_1" index="1" speed="7.33" length="11.73" shape="316.80,211.20 312.95,211.55 310.20,212.60 308.55,214.35 308.00,216.80"/>
    </edge>
    <edge id=":D2_8" function="internal">
        <lane id=":D2_8_0" index="0" speed="13.89" length="33.60" shape="316.80,211.20 283.20,211.20"/>
        <lane id=":D2_8_1" index="1" speed="13.89" length="33.60" shape="316.80,208.00 283.20,208.00"/>
        <lane id=":D2_8_2" index="2" speed="13.89" length="33.60" shape="316.80,204.80 283.20,204.80"/>
        <lane id=":D2_8_3" index="3" speed="13.89" length="33.60" shape="316.80,201.60 283.20,201.60"/>
    </edge>
    <edge id=":D2_12" function="internal">
        <lane id=":D2_12_0" index="0" speed="6.51" length="9.03" shape="311.20,183.20 311.55,185.65 312.60,187.40 314.35,188.45 316.80,188.80"/>
        <lane id=":D2_12_1" index="1" speed="7.33" length="11.73" shape="311.20,183.20 311.55,187.05 312.60,189.80 314.35,191.45 316.80,192.00"/>
    </edge>
    <edge id=":D2_14" function="internal">
        <lane id=":D2_14_0" index="0" speed="13.89" length="33.60" shape="311.20,183.20 311.20,216.80"/>
        <lane id=":D2_14_1" index="1" speed="13.89" length="33.60" shape="308.00,183.20 308.00,216.80"/>
        <lane id=":D2_14_2" index="2" speed="13.89" length="33.60" shape="304.80,183.20 304.80,216.80"/>
        <lane id=":D2_14_3" index="3" speed="13.89" length="33.60" shape="301.60,183.20 301.60,216.80"/>
    </edge>
    <edge id=":D2_18" function="internal">
        <lane id=":D2_18_0" index="0" speed="6.51" length="9.03" shape="283.20,188.80 285.65,188.45 287.40,187.40 288.45,185.65 288.80,183.20"/>
        <lane id=":D2_18_1" index="1" speed="7.33" length="11.73" shape="283.20,188.80 287.05,188.45 289.80,187.40 291.45,185.65 292.00,183.20"/>
    </edge>
    <edge id=":D2_20" function="internal">
        <lane id=":D2_20_0" index="0" speed="13.89" length="33.60" shape="283.20,188.80 316.80,188.80"/>
        <lane id=":D2_20_1" index="1" speed="13.89" length="33.60" shape="283.20,192.00 316.80,192.00"/>
        <lane id=":D2_20_2" index="2" speed="13.89" length="33.60" shape="283.20,195.20 316.80,195.20"/>
        <lane id=":D2_20_3" index="3" speed="13.89" length="33.60" shape="283.20,198.40 316.80,198.40"/>
    </edge>
    <edge id=":D3_0" function="internal">
        <lane id=":D3_0_0" index="0" speed="6.51" length="9.03" shape="288.80,316.80 288.45,314.35 287.40,312.60 285.65,311.55 283.20,311.20"/>
        <lane id=":D3_0_1" index="1" speed="7.33" length="11.73" shape="288.80,316.80 288.45,312.95 287.40,310.20 285.65,308.55 283.20,308.00"/>
    </edge>
    <edge id=":D3_2" function="internal">
        <lane id=":D3_2_0" index="0" speed="13.89" length="33.60" shape="288.80,316.80 288.80,283.20"/>
        <lane id=":D3_2_1" index="1" speed="13.89" length="33.60" shape="292.00,316.80 292.00,283.20"/>
        <lane id=":D3_2_2" index="2" speed="13.89" length="33.60" shape="295.20,316.80 295.20,283.20"/>
        <lane id=":D3_2_3" index="3" speed="13.89" length="33.60" shape="298.40,316.80 298.40,283.20"/>
    </edge>
    <edge id=":D3_6" function="internal">
        <lane id=":D3_6_0" index="0" speed="6.51" length="9.03" shape="316.80,311.20 314.35,311.55 312.60,312.60 311.55,314.35 311.20,316.80"/>
        <lane id=":D3_6_1" index="1" speed="7.33" length="11.73" shape="316.80,311.20 312.95,311.55 310.20,312.60 308.55,314.35 308.00,316.80"/>
    </edge>
    <edge id=":D3_8" function="internal">
        <lane id=":D3_8_0" index="0" speed="13.89" length="33.60" shape="316.80,311.20 283.20,311.20"/>
        <lane id=":D3_8_1" index="1" speed="13.89" length="33.60" shape="316.80,308.00 283.20,308.00"/>
        <lane id=":D3_8_2" index="2" speed="13.89" length="33.60" shape="316.80,304.80 283.20,304.80"/>
        <lane id=":D3_8_3" index="3" speed="13.89" length="33.60" shape="316.80,301.60 283.20,301.60"/>
    </edge>
    <edge id=":D3_12" function="internal">
        <lane id=":D3_12_0" index="0" speed="6.51" length="9.03" shape="311.20,283.20 311.55,285.65 312.60,287.40 314.35,288.45 316.80,288.80"/>
        <lane id=":D3_12_1" index="1" speed="7.33" length="11.73" shape="311.20,283.20 311.55,287.05 312.60,289.80 314.35,291.45 316.80,292.00"/>
    </edge>
    <edge id=":D3_14" function="internal">
        <lane id=":D3_14_0" index="0" speed="13.89" length="33.60" shape="311.20,283.20 311.20,316.80"/>
        <lane id=":D3_14_1" index="1" speed="13.89" length="33.60" shape="308.00,283.20 308.00,316.80"/>
        <lane id=":D3_14_2" index="2" speed="13.89" length="33.60" shape="304.80,283.20 304.80,316.80"/>
        <lane id=":D3_14_3" index="3" speed="13.89" length="33.60" shape="301.60,283.20 301.60,316.80"/>
    </edge>
    <edge id=":D3_18" function="internal">
        <lane id=":D3_18_0" index="0" speed="6.51" length="9.03" shape="283.20,288.80 285.65,288.45 287.40,287.40 288.45,285.65 288.80,283.20"/>