<?xml version="1.0" encoding="UTF-8"?>

<!-- generated on 2025-03-24 15:52:49 by Eclipse SUMO netedit Version 1.21.0
<neteditConfiguration xmlns:xsi="http://www.w3.org/2001/XMLSchema-instance" xsi:noNamespaceSchemaLocation="http://sumo.dlr.de/xsd/neteditConfiguration.xsd">

    <input>
        <sumo-net-file value="C:\Users\oriol\Documents\VIU\TFM\RL-TrafficFlow-BQN\data\network\grid_4inter_leftTL.net.xml"/>
    </input>

    <output>
        <output-file value="C:\Users\oriol\Documents\VIU\TFM\RL-TrafficFlow-BQN\data\network\grid_4inter_leftTL.net.xml"/>
    </output>

    <processing>
        <geometry.min-radius.fix.railways value="false"/>
        <geometry.max-grade.fix value="false"/>
        <offset.disable-normalization value="true"/>
        <lefthand value="0"/>
    </processing>

    <junctions>
        <no-turnarounds value="true"/>
        <junctions.corner-detail value="5"/>
        <junctions.limit-turn-speed value="5.50"/>
        <rectangular-lane-cut value="0"/>
    </junctions>

    <pedestrian>
        <walkingareas value="0"/>
    </pedestrian>

</neteditConfiguration>
-->

<net version="1.20" junctionCornerDetail="5" limitTurnSpeed="5.50" xmlns:xsi="http://www.w3.org/2001/XMLSchema-instance" xsi:noNamespaceSchemaLocation="http://sumo.dlr.de/xsd/net_file.xsd">

    <location netOffset="3.20,3.20" convBoundary="3.20,3.20,303.20,303.20" origBoundary="0.00,0.00,300.00,300.00" projParameter="!"/>

    <edge id=":A1B1.40.00_0" function="internal">
        <lane id=":A1B1.40.00_0_0" index="0" speed="13.89" length="8.20" shape="39.20,92.00 47.20,92.00"/>
        <lane id=":A1B1.40.00_0_1" index="1" speed="13.89" length="8.20" shape="39.20,95.20 47.20,95.20"/>
        <lane id=":A1B1.40.00_0_2" index="2" speed="13.89" length="8.20" shape="39.20,98.40 47.20,98.40"/>
        <lane id=":A1B1.40.00_0_3" index="3" speed="13.89" length="8.20" shape="39.20,98.40 41.66,98.90 43.20,100.00 44.74,101.10 47.20,101.60"/>
    </edge>
    <edge id=":A2B2.40.00_0" function="internal">
        <lane id=":A2B2.40.00_0_0" index="0" speed="13.89" length="8.20" shape="39.20,192.00 47.20,192.00"/>
        <lane id=":A2B2.40.00_0_1" index="1" speed="13.89" length="8.20" shape="39.20,195.20 47.20,195.20"/>
        <lane id=":A2B2.40.00_0_2" index="2" speed="13.89" length="8.20" shape="39.20,198.40 47.20,198.40"/>
        <lane id=":A2B2.40.00_0_3" index="3" speed="13.89" length="8.20" shape="39.20,198.40 41.66,198.90 43.20,200.00 44.74,201.10 47.20,201.60"/>
    </edge>
    <edge id=":B0B1.40.00_0" function="internal">
        <lane id=":B0B1.40.00_0_0" index="0" speed="13.89" length="8.20" shape="114.40,39.20 114.40,47.20"/>
        <lane id=":B0B1.40.00_0_1" index="1" speed="13.89" length="8.20" shape="111.20,39.20 111.20,47.20"/>
        <lane id=":B0B1.40.00_0_2" index="2" speed="13.89" length="8.20" shape="108.00,39.20 108.00,47.20"/>
        <lane id=":B0B1.40.00_0_3" index="3" speed="13.89" length="8.20" shape="108.00,39.20 107.50,41.66 106.40,43.20 105.30,44.74 104.80,47.20"/>
    </edge>
    <edge id=":B1_0" function="internal">
        <lane id=":B1_0_0" index="0" speed="6.51" length="9.03" shape="92.00,120.00 91.65,117.55 90.60,115.80 88.85,114.75 86.40,114.40"/>
    </edge>
    <edge id=":B1_1" function="internal">
        <lane id=":B1_1_0" index="0" speed="13.89" length="33.60" shape="92.00,120.00 92.00,86.40"/>
        <lane id=":B1_1_1" index="1" speed="13.89" length="33.60" shape="95.20,120.00 95.20,86.40"/>
        <lane id=":B1_1_2" index="2" speed="13.89" length="33.60" shape="98.40,120.00 98.40,86.40"/>
    </edge>
    <edge id=":B1_4" function="internal">
        <lane id=":B1_4_0" index="0" speed="11.84" length="15.46" shape="101.60,120.00 102.75,110.55 105.45,105.26"/>
    </edge>
    <edge id=":B1_20" function="internal">
        <lane id=":B1_20_0" index="0" speed="11.84" length="16.84" shape="105.45,105.26 106.20,103.80 111.95,99.75 120.00,98.40"/>
    </edge>
    <edge id=":B1_5" function="internal">
        <lane id=":B1_5_0" index="0" speed="6.51" length="9.03" shape="120.00,114.40 117.55,114.75 115.80,115.80 114.75,117.55 114.40,120.00"/>
    </edge>
    <edge id=":B1_6" function="internal">
        <lane id=":B1_6_0" index="0" speed="13.89" length="33.60" shape="120.00,114.40 86.40,114.40"/>
        <lane id=":B1_6_1" index="1" speed="13.89" length="33.60" shape="120.00,111.20 86.40,111.20"/>
        <lane id=":B1_6_2" index="2" speed="13.89" length="33.60" shape="120.00,108.00 86.40,108.00"/>
    </edge>
    <edge id=":B1_9" function="internal">
        <lane id=":B1_9_0" index="0" speed="11.84" length="15.46" shape="120.00,104.80 110.55,103.65 105.26,100.95"/>
    </edge>
    <edge id=":B1_21" function="internal">
        <lane id=":B1_21_0" index="0" speed="11.84" length="16.84" shape="105.26,100.95 103.80,100.20 99.75,94.45 98.40,86.40"/>
    </edge>
    <edge id=":B1_10" function="internal">
        <lane id=":B1_10_0" index="0" speed="6.51" length="9.03" shape="114.40,86.40 114.75,88.85 115.80,90.60 117.55,91.65 120.00,92.00"/>
    </edge>
    <edge id=":B1_11" function="internal">
        <lane id=":B1_11_0" index="0" speed="13.89" length="33.60" shape="114.40,86.40 114.40,120.00"/>
        <lane id=":B1_11_1" index="1" speed="13.89" length="33.60" shape="111.20,86.40 111.20,120.00"/>
        <lane id=":B1_11_2" index="2" speed="13.89" length="33.60" shape="108.00,86.40 108.00,120.00"/>
    </edge>
    <edge id=":B1_14" function="internal">
        <lane id=":B1_14_0" index="0" speed="11.84" length="15.46" shape="104.80,86.40 103.65,95.85 100.95,101.14"/>
    </edge>
    <edge id=":B1_22" function="internal">
        <lane id=":B1_22_0" index="0" speed="11.84" length="16.84" shape="100.95,101.14 100.20,102.60 94.45,106.65 86.40,108.00"/>
    </edge>
    <edge id=":B1_15" function="internal">
        <lane id=":B1_15_0" index="0" speed="6.51" length="9.03" shape="86.40,92.00 88.85,91.65 90.60,90.60 91.65,88.85 92.00,86.40"/>
    </edge>
    <edge id=":B1_16" function="internal">
        <lane id=":B1_16_0" index="0" speed="13.89" length="33.60" shape="86.40,92.00 120.00,92.00"/>
        <lane id=":B1_16_1" index="1" speed="13.89" length="33.60" shape="86.40,95.20 120.00,95.20"/>
        <lane id=":B1_16_2" index="2" speed="13.89" length="33.60" shape="86.40,98.40 120.00,98.40"/>
    </edge>
    <edge id=":B1_19" function="internal">
        <lane id=":B1_19_0" index="0" speed="11.84" length="15.46" shape="86.40,101.60 95.85,102.75 101.14,105.45"/>
    </edge>
    <edge id=":B1_23" function="internal">
        <lane id=":B1_23_0" index="0" speed="11.84" length="16.84" shape="101.14,105.45 102.60,106.20 106.65,111.95 108.00,120.00"/>
    </edge>
    <edge id=":B1A1.40.00_0" function="internal">
        <lane id=":B1A1.40.00_0_0" index="0" speed="13.89" length="8.20" shape="67.20,114.40 59.20,114.40"/>
        <lane id=":B1A1.40.00_0_1" index="1" speed="13.89" length="8.20" shape="67.20,111.20 59.20,111.20"/>
        <lane id=":B1A1.40.00_0_2" index="2" speed="13.89" length="8.20" shape="67.20,108.00 59.20,108.00"/>
        <lane id=":B1A1.40.00_0_3" index="3" speed="13.89" length="8.20" shape="67.20,108.00 64.74,107.50 63.20,106.40 61.66,105.30 59.20,104.80"/>
    </edge>
    <edge id=":B1B0.40.00_0" function="internal">
        <lane id=":B1B0.40.00_0_0" index="0" speed="13.89" length="8.20" shape="92.00,67.20 92.00,59.20"/>
        <lane id=":B1B0.40.00_0_1" index="1" speed="13.89" length="8.20" shape="95.20,67.20 95.20,59.20"/>
        <lane id=":B1B0.40.00_0_2" index="2" speed="13.89" length="8.20" shape="98.40,67.20 98.40,59.20"/>
        <lane id=":B1B0.40.00_0_3" index="3" speed="13.89" length="8.20" shape="98.40,67.20 98.90,64.74 100.00,63.20 101.10,61.66 101.60,59.20"/>
    </edge>
    <edge id=":B1B2.40.00_0" function="internal">
        <lane id=":B1B2.40.00_0_0" index="0" speed="13.89" length="8.20" shape="114.40,139.20 114.40,147.20"/>
        <lane id=":B1B2.40.00_0_1" index="1" speed="13.89" length="8.20" shape="111.20,139.20 111.20,147.20"/>
        <lane id=":B1B2.40.00_0_2" index="2" speed="13.89" length="8.20" shape="108.00,139.20 108.00,147.20"/>
        <lane id=":B1B2.40.00_0_3" index="3" speed="13.89" length="8.20" shape="108.00,139.20 107.50,141.66 106.40,143.20 105.30,144.74 104.80,147.20"/>
    </edge>
    <edge id=":B1C1.40.00_0" function="internal">
        <lane id=":B1C1.40.00_0_0" index="0" speed="13.89" length="8.20" shape="139.20,92.00 147.20,92.00"/>
        <lane id=":B1C1.40.00_0_1" index="1" speed="13.89" length="8.20" shape="139.20,95.20 147.20,95.20"/>
        <lane id=":B1C1.40.00_0_2" index="2" speed="13.89" length="8.20" shape="139.20,98.40 147.20,98.40"/>
        <lane id=":B1C1.40.00_0_3" index="3" speed="13.89" length="8.20" shape="139.20,98.40 141.66,98.90 143.20,100.00 144.74,101.10 147.20,101.60"/>
    </edge>
    <edge id=":B2_0" function="internal">
        <lane id=":B2_0_0" index="0" speed="6.51" length="9.03" shape="92.00,220.00 91.65,217.55 90.60,215.80 88.85,214.75 86.40,214.40"/>
    </edge>
    <edge id=":B2_1" function="internal">
        <lane id=":B2_1_0" index="0" speed="13.89" length="33.60" shape="92.00,220.00 92.00,186.40"/>
        <lane id=":B2_1_1" index="1" speed="13.89" length="33.60" shape="95.20,220.00 95.20,186.40"/>
        <lane id=":B2_1_2" index="2" speed="13.89" length="33.60" shape="98.40,220.00 98.40,186.40"/>
    </edge>
    <edge id=":B2_4" function="internal">
        <lane id=":B2_4_0" index="0" speed="11.84" length="15.46" shape="101.60,220.00 102.75,210.55 105.45,205.26"/>
    </edge>
    <edge id=":B2_20" function="internal">
        <lane id=":B2_20_0" index="0" speed="11.84" length="16.84" shape="105.45,205.26 106.20,203.80 111.95,199.75 120.00,198.40"/>
    </edge>
    <edge id=":B2_5" function="internal">
        <lane id=":B2_5_0" index="0" speed="6.51" length="9.03" shape="120.00,214.40 117.55,214.75 115.80,215.80 114.75,217.55 114.40,220.00"/>
    </edge>
    <edge id=":B2_6" function="internal">
        <lane id=":B2_6_0" index="0" speed="13.89" length="33.60" shape="120.00,214.40 86.40,214.40"/>
        <lane id=":B2_6_1" index="1" speed="13.89" length="33.60" shape="120.00,211.20 86.40,211.20"/>
        <lane id=":B2_6_2" index="2" speed="13.89" length="33.60" shape="120.00,208.00 86.40,208.00"/>
    </edge>
    <edge id=":B2_9" function="internal">
        <lane id=":B2_9_0" index="0" speed="11.84" length="15.46" shape="120.00,204.80 110.55,203.65 105.26,200.95"/>
    </edge>
    <edge id=":B2_21" function="internal">
        <lane id=":B2_21_0" index="0" speed="11.84" length="16.84" shape="105.26,200.95 103.80,200.20 99.75,194.45 98.40,186.40"/>
    </edge>
    <edge id=":B2_10" function="internal">
        <lane id=":B2_10_0" index="0" speed="6.51" length="9.03" shape="114.40,186.40 114.75,188.85 115.80,190.60 117.55,191.65 120.00,192.00"/>
    </edge>
    <edge id=":B2_11" function="internal">
        <lane id=":B2_11_0" index="0" speed="13.89" length="33.60" shape="114.40,186.40 114.40,220.00"/>
        <lane id=":B2_11_1" index="1" speed="13.89" length="33.60" shape="111.20,186.40 111.20,220.00"/>
        <lane id=":B2_11_2" index="2" speed="13.89" length="33.60" shape="108.00,186.40 108.00,220.00"/>
    </edge>
    <edge id=":B2_14" function="internal">
        <lane id=":B2_14_0" index="0" speed="11.84" length="15.46" shape="104.80,186.40 103.65,195.85 100.95,201.14"/>
    </edge>
    <edge id=":B2_22" function="internal">
        <lane id=":B2_22_0" index="0" speed="11.84" length="16.84" shape="100.95,201.14 100.20,202.60 94.45,206.65 86.40,208.00"/>
    </edge>
    <edge id=":B2_15" function="internal">
        <lane id=":B2_15_0" index="0" speed="6.51" length="9.03" shape="86.40,192.00 88.85,191.65 90.60,190.60 91.65,188.85 92.00,186.40"/>
    </edge>
    <edge id=":B2_16" function="internal">
        <lane id=":B2_16_0" index="0" speed="13.89" length="33.60" shape="86.40,192.00 120.00,192.00"/>
        <lane id=":B2_16_1" index="1" speed="13.89" length="33.60" shape="86.40,195.20 120.00,195.20"/>
        <lane id=":B2_16_2" index="2" speed="13.89" length="33.60" shape="86.40,198.40 120.00,198.40"/>
    </edge>
    <edge id=":B2_19" function="internal">
        <lane id=":B2_19_0" index="0" speed="11.84" length="15.46" shape="86.40,201.60 95.85,202.75 101.14,205.45"/>
    </edge>
    <edge id=":B2_23" function="internal">
        <lane id=":B2_23_0" index="0" speed="11.84" length="16.84" shape="101.14,205.45 102.60,206.20 106.65,211.95 108.00,220.00"/>
    </edge>
    <edge id=":B2A2.40.00_0" function="internal">
        <lane id=":B2A2.40.00_0_0" index="0" speed="13.89" length="8.20" shape="67.20,214.40 59.20,214.40"/>
        <lane id=":B2A2.40.00_0_1" index="1" speed="13.89" length="8.20" shape="67.20,211.20 59.20,211.20"/>
        <lane id=":B2A2.40.00_0_2" index="2" speed="13.89" length="8.20" shape="67.20,208.00 59.20,208.00"/>
        <lane id=":B2A2.40.00_0_3" index="3" speed="13.89" length="8.20" shape="67.20,208.00 64.74,207.50 63.20,206.40 61.66,205.30 59.20,204.80"/>
    </edge>
    <edge id=":B2B1.40.00_0" function="internal">
        <lane id=":B2B1.40.00_0_0" index="0" speed="13.89" length="8.20" shape="92.00,167.20 92.00,159.20"/>
        <lane id=":B2B1.40.00_0_1" index="1" speed="13.89" length="8.20" shape="95.20,167.20 95.20,159.20"/>
        <lane id=":B2B1.40.00_0_2" index="2" speed="13.89" length="8.20" shape="98.40,167.20 98.40,159.20"/>
        <lane id=":B2B1.40.00_0_3" index="3" speed="13.89" length="8.20" shape="98.40,167.20 98.90,164.74 100.00,163.20 101.10,161.66 101.60,159.20"/>
    </edge>
    <edge id=":B2B3.40.00_0" function="internal">
        <lane id=":B2B3.40.00_0_0" index="0" speed="13.89" length="8.20" shape="114.40,239.20 114.40,247.20"/>
        <lane id=":B2B3.40.00_0_1" index="1" speed="13.89" length="8.20" shape="111.20,239.20 111.20,247.20"/>
        <lane id=":B2B3.40.00_0_2" index="2" speed="13.89" length="8.20" shape="108.00,239.20 108.00,247.20"/>
        <lane id=":B2B3.40.00_0_3" index="3" speed="13.89" length="8.20" shape="108.00,239.20 107.50,241.66 106.40,243.20 105.30,244.74 104.80,247.20"/>
    </edge>
    <edge id=":B2C2.40.00_0" function="internal">
        <lane id=":B2C2.40.00_0_0" index="0" speed="13.89" length="8.20" shape="139.20,192.00 147.20,192.00"/>
        <lane id=":B2C2.40.00_0_1" index="1" speed="13.89" length="8.20" shape="139.20,195.20 147.20,195.20"/>
        <lane id=":B2C2.40.00_0_2" index="2" speed="13.89" length="8.20" shape="139.20,198.40 147.20,198.40"/>
        <lane id=":B2C2.40.00_0_3" index="3" speed="13.89" length="8.20" shape="139.20,198.40 141.66,198.90 143.20,200.00 144.74,201.10 147.20,201.60"/>
    </edge>
    <edge id=":B3B2.40.00_0" function="internal">
        <lane id=":B3B2.40.00_0_0" index="0" speed="13.89" length="8.20" shape="92.00,267.20 92.00,259.20"/>
        <lane id=":B3B2.40.00_0_1" index="1" speed="13.89" length="8.20" shape="95.20,267.20 95.20,259.20"/>
        <lane id=":B3B2.40.00_0_2" index="2" speed="13.89" length="8.20" shape="98.40,267.20 98.40,259.20"/>
        <lane id=":B3B2.40.00_0_3" index="3" speed="13.89" length="8.20" shape="98.40,267.20 98.90,264.74 100.00,263.20 101.10,261.66 101.60,259.20"/>
    </edge>
    <edge id=":C0C1.40.00_0" function="internal">
        <lane id=":C0C1.40.00_0_0" index="0" speed="13.89" length="8.20" shape="214.40,39.20 214.40,47.20"/>
        <lane id=":C0C1.40.00_0_1" index="1" speed="13.89" length="8.20" shape="211.20,39.20 211.20,47.20"/>
        <lane id=":C0C1.40.00_0_2" index="2" speed="13.89" length="8.20" shape="208.00,39.20 208.00,47.20"/>
        <lane id=":C0C1.40.00_0_3" index="3" speed="13.89" length="8.20" shape="208.00,39.20 207.50,41.66 206.40,43.20 205.30,44.74 204.80,47.20"/>
    </edge>
    <edge id=":C1_0" function="internal">
        <lane id=":C1_0_0" index="0" speed="6.51" length="9.03" shape="192.00,120.00 191.65,117.55 190.60,115.80 188.85,114.75 186.40,114.40"/>
    </edge>
    <edge id=":C1_1" function="internal">
        <lane id=":C1_1_0" index="0" speed="13.89" length="33.60" shape="192.00,120.00 192.00,86.40"/>
        <lane id=":C1_1_1" index="1" speed="13.89" length="33.60" shape="195.20,120.00 195.20,86.40"/>
        <lane id=":C1_1_2" index="2" speed="13.89" length="33.60" shape="198.40,120.00 198.40,86.40"/>
    </edge>
    <edge id=":C1_4" function="internal">
        <lane id=":C1_4_0" index="0" speed="11.84" length="15.46" shape="201.60,120.00 202.75,110.55 205.45,105.26"/>
    </edge>
    <edge id=":C1_20" function="internal">
        <lane id=":C1_20_0" index="0" speed="11.84" length="16.84" shape="205.45,105.26 206.20,103.80 211.95,99.75 220.00,98.40"/>
    </edge>
    <edge id=":C1_5" function="internal">
        <lane id=":C1_5_0" index="0" speed="6.51" length="9.03" shape="220.00,114.40 217.55,114.75 215.80,115.80 214.75,117.55 214.40,120.00"/>
    </edge>
    <edge id=":C1_6" function="internal">
        <lane id=":C1_6_0" index="0" speed="13.89" length="33.60" shape="220.00,114.40 186.40,114.40"/>
        <lane id=":C1_6_1" index="1" speed="13.89" length="33.60" shape="220.00,111.20 186.40,111.20"/>
        <lane id=":C1_6_2" index="2" speed="13.89" length="33.60" shape="220.00,108.00 186.40,108.00"/>
    </edge>
    <edge id=":C1_9" function="internal">
        <lane id=":C1_9_0" index="0" speed="11.84" length="15.46" shape="220.00,104.80 210.55,103.65 205.26,100.95"/>
    </edge>
    <edge id=":C1_21" function="internal">
        <lane id=":C1_21_0" index="0" speed="11.84" length="16.84" shape="205.26,100.95 203.80,100.20 199.75,94.45 198.40,86.40"/>
    </edge>
    <edge id=":C1_10" function="internal">
        <lane id=":C1_10_0" index="0" speed="6.51" length="9.03" shape="214.40,86.40 214.75,88.85 215.80,90.60 217.55,91.65 220.00,92.00"/>
    </edge>
    <edge id=":C1_11" function="internal">
        <lane id=":C1_11_0" index="0" speed="13.89" length="33.60" shape="214.40,86.40 214.40,120.00"/>
        <lane id=":C1_11_1" index="1" speed="13.89" length="33.60" shape="211.20,86.40 211.20,120.00"/>
        <lane id=":C1_11_2" index="2" speed="13.89" length="33.60" shape="208.00,86.40 208.00,120.00"/>
    </edge>
    <edge id=":C1_14" function="internal">
        <lane id=":C1_14_0" index="0" speed="11.84" length="15.46" shape="204.80,86.40 203.65,95.85 200.95,101.14"/>
    </edge>
    <edge id=":C1_22" function="internal">
        <lane id=":C1_22_0" index="0" speed="11.84" length="16.84" shape="200.95,101.14 200.20,102.60 194.45,106.65 186.40,108.00"/>
    </edge>
    <edge id=":C1_15" function="internal">
        <lane id=":C1_15_0" index="0" speed="6.51" length="9.03" shape="186.40,92.00 188.85,91.65 190.60,90.60 191.65,88.85 192.00,86.40"/>
    </edge>
    <edge id=":C1_16" function="internal">
        <lane id=":C1_16_0" index="0" speed="13.89" length="33.60" shape="186.40,92.00 220.00,92.00"/>
        <lane id=":C1_16_1" index="1" speed="13.89" length="33.60" shape="186.40,95.20 220.00,95.20"/>
        <lane id=":C1_16_2" index="2" speed="13.89" length="33.60" shape="186.40,98.40 220.00,98.40"/>
    </edge>
    <edge id=":C1_19" function="internal">
        <lane id=":C1_19_0" index="0" speed="11.84" length="15.46" shape="186.40,101.60 195.85,102.75 201.14,105.45"/>
    </edge>
    <edge id=":C1_23" function="internal">
        <lane id=":C1_23_0" index="0" speed="11.84" length="16.84" shape="201.14,105.45 202.60,106.20 206.65,111.95 208.00,120.00"/>
    </edge>
    <edge id=":C1B1.40.00_0" function="internal">
        <lane id=":C1B1.40.00_0_0" index="0" speed="13.89" length="8.20" shape="167.20,114.40 159.20,114.40"/>
        <lane id=":C1B1.40.00_0_1" index="1" speed="13.89" length="8.20" shape="167.20,111.20 159.20,111.20"/>
        <lane id=":C1B1.40.00_0_2" index="2" speed="13.89" length="8.20" shape="167.20,108.00 159.20,108.00"/>
        <lane id=":C1B1.40.00_0_3" index="3" speed="13.89" length="8.20" shape="167.20,108.00 164.74,107.50 163.20,106.40 161.66,105.30 159.20,104.80"/>
    </edge>
    <edge id=":C1C0.40.00_0" function="internal">
        <lane id=":C1C0.40.00_0_0" index="0" speed="13.89" length="8.20" shape="192.00,67.20 192.00,59.20"/>
        <lane id=":C1C0.40.00_0_1" index="1" speed="13.89" length="8.20" shape="195.20,67.20 195.20,59.20"/>
        <lane id=":C1C0.40.00_0_2" index="2" speed="13.89" length="8.20" shape="198.40,67.20 198.40,59.20"/>
        <lane id=":C1C0.40.00_0_3" index="3" speed="13.89" length="8.20" shape="198.40,67.20 198.90,64.74 200.00,63.20 201.10,61.66 201.60,59.20"/>
    </edge>
    <edge id=":C1C2.40.00_0" function="internal">
        <lane id=":C1C2.40.00_0_0" index="0" speed="13.89" length="8.20" shape="214.40,139.20 214.40,147.20"/>
        <lane id=":C1C2.40.00_0_1" index="1" speed="13.89" length="8.20" shape="211.20,139.20 211.20,147.20"/>
        <lane id=":C1C2.40.00_0_2" index="2" speed="13.89" length="8.20" shape="208.00,139.20 208.00,147.20"/>
        <lane id=":C1C2.40.00_0_3" index="3" speed="13.89" length="8.20" shape="208.00,139.20 207.50,141.66 206.40,143.20 205.30,144.74 204.80,147.20"/>
    </edge>
    <edge id=":C1D1.40.00_0" function="internal">
        <lane id=":C1D1.40.00_0_0" index="0" speed="13.89" length="8.20" shape="239.20,92.00 247.20,92.00"/>
        <lane id=":C1D1.40.00_0_1" index="1" speed="13.89" length="8.20" shape="239.20,95.20 247.20,95.20"/>
        <lane id=":C1D1.40.00_0_2" index="2" speed="13.89" length="8.20" shape="239.20,98.40 247.20,98.40"/>
        <lane id=":C1D1.40.00_0_3" index="3" speed="13.89" length="8.20" shape="239.20,98.40 241.66,98.90 243.20,100.00 244.74,101.10 247.20,101.60"/>
    </edge>
    <edge id=":C2_0" function="internal">
        <lane id=":C2_0_0" index="0" speed="6.51" length="9.03" shape="192.00,220.00 191.65,217.55 190.60,215.80 188.85,214.75 186.40,214.40"/>
    </edge>
    <edge id=":C2_1" function="internal">
        <lane id=":C2_1_0" index="0" speed="13.89" length="33.60" shape="192.00,220.00 192.00,186.40"/>
        <lane id=":C2_1_1" index="1" speed="13.89" length="33.60" shape="195.20,220.00 195.20,186.40"/>
        <lane id=":C2_1_2" index="2" speed="13.89" length="33.60" shape="198.40,220.00 198.40,186.40"/>
    </edge>
    <edge id=":C2_4" function="internal">
        <lane id=":C2_4_0" index="0" speed="11.84" length="15.46" shape="201.60,220.00 202.75,210.55 205.45,205.26"/>
    </edge>
    <edge id=":C2_20" function="internal">
        <lane id=":C2_20_0" index="0" speed="11.84" length="16.84" shape="205.45,205.26 206.20,203.80 211.95,199.75 220.00,198.40"/>
    </edge>
    <edge id=":C2_5" function="internal">
        <lane id=":C2_5_0" index="0" speed="6.51" length="9.03" shape="220.00,214.40 217.55,214.75 215.80,215.80 214.75,217.55 214.40,220.00"/>
    </edge>
    <edge id=":C2_6" function="internal">
        <lane id=":C2_6_0" index="0" speed="13.89" length="33.60" shape="220.00,214.40 186.40,214.40"/>
        <lane id=":C2_6_1" index="1" speed="13.89" length="33.60" shape="220.00,211.20 186.40,211.20"/>
        <lane id=":C2_6_2" index="2" speed="13.89" length="33.60" shape="220.00,208.00 186.40,208.00"/>
    </edge>
    <edge id=":C2_9" function="internal">
        <lane id=":C2_9_0" index="0" speed="11.84" length="15.46" shape="220.00,204.80 210.55,203.65 205.26,200.95"/>
    </edge>
    <edge id=":C2_21" function="internal">
        <lane id=":C2_21_0" index="0" speed="11.84" length="16.84" shape="205.26,200.95 203.80,200.20 199.75,194.45 198.40,186.40"/>
    </edge>
    <edge id=":C2_10" function="internal">
        <lane id=":C2_10_0" index="0" speed="6.51" length="9.03" shape="214.40,186.40 214.75,188.85 215.80,190.60 217.55,191.65 220.00,192.00"/>
    </edge>
    <edge id=":C2_11" function="internal">
        <lane id=":C2_11_0" index="0" speed="13.89" length="33.60" shape="214.40,186.40 214.40,220.00"/>
        <lane id=":C2_11_1" index="1" speed="13.89" length="33.60" shape="211.20,186.40 211.20,220.00"/>
        <lane id=":C2_11_2" index="2" speed="13.89" length="33.60" shape="208.00,186.40 208.00,220.00"/>
    </edge>
    <edge id=":C2_14" function="internal">
        <lane id=":C2_14_0" index="0" speed="11.84" length="15.46" shape="204.80,186.40 203.65,195.85 200.95,201.14"/>
    </edge>
    <edge id=":C2_22" function="internal">
        <lane id=":C2_22_0" index="0" speed="11.84" length="16.84" shape="200.95,201.14 200.20,202.60 194.45,206.65 186.40,208.00"/>
    </edge>
    <edge id=":C2_15" function="internal">
        <lane id=":C2_15_0" index="0" speed="6.51" length="9.03" shape="186.40,192.00 188.85,191.65 190.60,190.60 191.65,188.85 192.00,186.40"/>
    </edge>
    <edge id=":C2_16" function="internal">
        <lane id=":C2_16_0" index="0" speed="13.89" length="33.60" shape="186.40,192.00 220.00,192.00"/>
        <lane id=":C2_16_1" index="1" speed="13.89" length="33.60" shape="186.40,195.20 220.00,195.20"/>
        <lane id=":C2_16_2" index="2" speed="13.89" length="33.60" shape="186.40,198.40 220.00,198.40"/>
    </edge>
    <edge id=":C2_19" function="internal">
        <lane id=":C2_19_0" index="0" speed="11.84" length="15.46" shape="186.40,201.60 195.85,202.75 201.14,205.45"/>
    </edge>
    <edge id=":C2_23" function="internal">
        <lane id=":C2_23_0" index="0" speed="11.84" length="16.84" shape="201.14,205.45 202.60,206.20 206.65,211.95 208.00,220.00"/>
    </edge>
    <edge id=":C2B2.40.00_0" function="internal">
        <lane id=":C2B2.40.00_0_0" index="0" speed="13.89" length="8.20" shape="167.20,214.40 159.20,214.40"/>
        <lane id=":C2B2.40.00_0_1" index="1" speed="13.89" length="8.20" shape="167.20,211.20 159.20,211.20"/>
        <lane id=":C2B2.40.00_0_2" index="2" speed="13.89" length="8.20" shape="167.20,208.00 159.20,208.00"/>
        <lane id=":C2B2.40.00_0_3" index="3" speed="13.89" length="8.20" shape="167.20,208.00 164.74,207.50 163.20,206.40 161.66,205.30 159.20,204.80"/>
    </edge>
    <edge id=":C2C1.40.00_0" function="internal">
        <lane id=":C2C1.40.00_0_0" index="0" speed="13.89" length="8.20" shape="192.00,167.20 192.00,159.20"/>
        <lane id=":C2C1.40.00_0_1" index="1" speed="13.89" length="8.20" shape="195.20,167.20 195.20,159.20"/>
        <lane id=":C2C1.40.00_0_2" index="2" speed="13.89" length="8.20" shape="198.40,167.20 198.40,159.20"/>
        <lane id=":C2C1.40.00_0_3" index="3" speed="13.89" length="8.20" shape="198.40,167.20 198.90,164.74 200.00,163.20 201.10,161.66 201.60,159.20"/>
    </edge>
    <edge id=":C2C3.40.00_0" function="internal">
        <lane id=":C2C3.40.00_0_0" index="0" speed="13.89" length="8.20" shape="214.40,239.20 214.40,247.20"/>
        <lane id=":C2C3.40.00_0_1" index="1" speed="13.89" length="8.20" shape="211.20,239.20 211.20,247.20"/>
        <lane id=":C2C3.40.00_0_2" index="2" speed="13.89" length="8.20" shape="208.00,239.20 208.00,247.20"/>
        <lane id=":C2C3.40.00_0_3" index="3" speed="13.89" length="8.20" shape="208.00,239.20 207.50,241.66 206.40,243.20 205.30,244.74 204.80,247.20"/>
    </edge>
    <edge id=":C2D2.40.00_0" function="internal">
        <lane id=":C2D2.40.00_0_0" index="0" speed="13.89" length="8.20" shape="239.20,192.00 247.20,192.00"/>
        <lane id=":C2D2.40.00_0_1" index="1" speed="13.89" length="8.20" shape="239.20,195.20 247.20,195.20"/>
        <lane id=":C2D2.40.00_0_2" index="2" speed="13.89" length="8.20" shape="239.20,198.40 247.20,198.40"/>
        <lane id=":C2D2.40.00_0_3" index="3" speed="13.89" length="8.20" shape="239.20,198.40 241.66,198.90 243.20,200.00 244.74,201.10 247.20,201.60"/>
    </edge>
    <edge id=":C3C2.40.00_0" function="internal">
        <lane id=":C3C2.40.00_0_0" index="0" speed="13.89" length="8.20" shape="192.00,267.20 192.00,259.20"/>
        <lane id=":C3C2.40.00_0_1" index="1" speed="13.89" length="8.20" shape="195.20,267.20 195.20,259.20"/>
        <lane id=":C3C2.40.00_0_2" index="2" speed="13.89" length="8.20" shape="198.40,267.20 198.40,259.20"/>
        <lane id=":C3C2.40.00_0_3" index="3" speed="13.89" length="8.20" shape="198.40,267.20 198.90,264.74 200.00,263.20 201.10,261.66 201.60,259.20"/>
    </edge>
    <edge id=":D1C1.40.00_0" function="internal">
        <lane id=":D1C1.40.00_0_0" index="0" speed="13.89" length="8.20" shape="267.20,114.40 259.20,114.40"/>
        <lane id=":D1C1.40.00_0_1" index="1" speed="13.89" length="8.20" shape="267.20,111.20 259.20,111.20"/>
        <lane id=":D1C1.40.00_0_2" index="2" speed="13.89" length="8.20" shape="267.20,108.00 259.20,108.00"/>
        <lane id=":D1C1.40.00_0_3" index="3" speed="13.89" length="8.20" shape="267.20,108.00 264.74,107.50 263.20,106.40 261.66,105.30 259.20,104.80"/>
    </edge>
    <edge id=":D2C2.40.00_0" function="internal">
        <lane id=":D2C2.40.00_0_0" index="0" speed="13.89" length="8.20" shape="267.20,214.40 259.20,214.40"/>
        <lane id=":D2C2.40.00_0_1" index="1" speed="13.89" length="8.20" shape="267.20,211.20 259.20,211.20"/>
        <lane id=":D2C2.40.00_0_2" index="2" speed="13.89" length="8.20" shape="267.20,208.00 259.20,208.00"/>
        <lane id=":D2C2.40.00_0_3" index="3" speed="13.89" length="8.20" shape="267.20,208.00 264.74,207.50 263.20,206.40 261.66,205.30 259.20,204.80"/>
    </edge>

    <edge id="A1B1" from="A1" to="A1B1.40.00" priority="-1" shape="3.20,100.00 43.20,100.00">
        <lane id="A1B1_0" index="0" speed="13.89" length="36.00" shape="3.20,92.00 39.20,92.00"/>
        <lane id="A1B1_1" index="1" speed="13.89" length="36.00" shape="3.20,95.20 39.20,95.20"/>
        <lane id="A1B1_2" index="2" speed="13.89" length="36.00" shape="3.20,98.40 39.20,98.40"/>
    </edge>
    <edge id="A1B1.40.00" from="A1B1.40.00" to="B1" priority="-1">
        <lane id="A1B1.40.00_0" index="0" speed="13.89" length="39.20" shape="47.20,92.00 86.40,92.00"/>
        <lane id="A1B1.40.00_1" index="1" speed="13.89" length="39.20" shape="47.20,95.20 86.40,95.20"/>
        <lane id="A1B1.40.00_2" index="2" speed="13.89" length="39.20" shape="47.20,98.40 86.40,98.40"/>