<?xml version="1.0" encoding="UTF-8"?>

<!-- generated on 2025-03-23 16:45:12 by Eclipse SUMO netedit Version 1.21.0
<neteditConfiguration xmlns:xsi="http://www.w3.org/2001/XMLSchema-instance" xsi:noNamespaceSchemaLocation="http://sumo.dlr.de/xsd/neteditConfiguration.xsd">

    <input>
        <sumo-net-file value="C:\Users\oriol\Documents\VIU\TFM\RL-TrafficFlow-BQN\data\network\grid_4inter.net.xml"/>
    </input>

    <output>
        <output-file value="C:\Users\oriol\Documents\VIU\TFM\RL-TrafficFlow-BQN\data\network\grid_4inter.net.xml"/>
    </output>

    <processing>
        <geometry.min-radius.fix.railways value="false"/>
        <geometry.max-grade.fix value="false"/>
        <offset.disable-normalization value="true"/>
        <lefthand value="0"/>
    </processing>

    <junctions>
        <no-turnarounds value="true"/>
        <junctions.corner-detail value="5"/>
        <junctions.limit-turn-speed value="5.50"/>
        <rectangular-lane-cut value="0"/>
    </junctions>

    <pedestrian>
        <walkingareas value="0"/>
    </pedestrian>

</neteditConfiguration>
-->

<net version="1.20" junctionCornerDetail="5" limitTurnSpeed="5.50" xmlns:xsi="http://www.w3.org/2001/XMLSchema-instance" xsi:noNamespaceSchemaLocation="http://sumo.dlr.de/xsd/net_file.xsd">

    <location netOffset="0.00,0.00" convBoundary="0.00,0.00,300.00,300.00" origBoundary="0.00,0.00,300.00,300.00" projParameter="!"/>

    <edge id=":B1_0" function="internal">
        <lane id=":B1_0_0" index="0" speed="6.51" length="9.03" shape="88.80,116.80 88.45,114.35 87.40,112.60 85.65,111.55 83.20,111.20"/>
        <lane id=":B1_0_1" index="1" speed="7.33" length="11.73" shape="88.80,116.80 88.45,112.95 87.40,110.20 85.65,108.55 83.20,108.00"/>
    </edge>
    <edge id=":B1_2" function="internal">
        <lane id=":B1_2_0" index="0" speed="13.89" length="33.60" shape="88.80,116.80 88.80,83.20"/>
        <lane id=":B1_2_1" index="1" speed="13.89" length="33.60" shape="92.00,116.80 92.00,83.20"/>
        <lane id=":B1_2_2" index="2" speed="13.89" length="33.60" shape="95.20,116.80 95.20,83.20"/>
        <lane id=":B1_2_3" index="3" speed="13.89" length="33.60" shape="98.40,116.80 98.40,83.20"/>
    </edge>
    <edge id=":B1_6" function="internal">
        <lane id=":B1_6_0" index="0" speed="6.51" length="9.03" shape="116.80,111.20 114.35,111.55 112.60,112.60 111.55,114.35 111.20,116.80"/>
        <lane id=":B1_6_1" index="1" speed="7.33" length="11.73" shape="116.80,111.20 112.95,111.55 110.20,112.60 108.55,114.35 108.00,116.80"/>
    </edge>
    <edge id=":B1_8" function="internal">
        <lane id=":B1_8_0" index="0" speed="13.89" length="33.60" shape="116.80,111.20 83.20,111.20"/>
        <lane id=":B1_8_1" index="1" speed="13.89" length="33.60" shape="116.80,108.00 83.20,108.00"/>
        <lane id=":B1_8_2" index="2" speed="13.89" length="33.60" shape="116.80,104.80 83.20,104.80"/>
        <lane id=":B1_8_3" index="3" speed="13.89" length="33.60" shape="116.80,101.60 83.20,101.60"/>
    </edge>
    <edge id=":B1_12" function="internal">
        <lane id=":B1_12_0" index="0" speed="6.51" length="9.03" shape="111.20,83.20 111.55,85.65 112.60,87.40 114.35,88.45 116.80,88.80"/>
        <lane id=":B1_12_1" index="1" speed="7.33" length="11.73" shape="111.20,83.20 111.55,87.05 112.60,89.80 114.35,91.45 116.80,92.00"/>
    </edge>
    <edge id=":B1_14" function="internal">
        <lane id=":B1_14_0" index="0" speed="13.89" length="33.60" shape="111.20,83.20 111.20,116.80"/>
        <lane id=":B1_14_1" index="1" speed="13.89" length="33.60" shape="108.00,83.20 108.00,116.80"/>
        <lane id=":B1_14_2" index="2" speed="13.89" length="33.60" shape="104.80,83.20 104.80,116.80"/>
        <lane id=":B1_14_3" index="3" speed="13.89" length="33.60" shape="101.60,83.20 101.60,116.80"/>
    </edge>
    <edge id=":B1_18" function="internal">
        <lane id=":B1_18_0" index="0" speed="6.51" length="9.03" shape="83.20,88.80 85.65,88.45 87.40,87.40 88.45,85.65 88.80,83.20"/>
        <lane id=":B1_18_1" index="1" speed="7.33" length="11.73" shape="83.20,88.80 87.05,88.45 89.80,87.40 91.45,85.65 92.00,83.20"/>
    </edge>
    <edge id=":B1_20" function="internal">
        <lane id=":B1_20_0" index="0" speed="13.89" length="33.60" shape="83.20,88.80 116.80,88.80"/>
        <lane id=":B1_20_1" index="1" speed="13.89" length="33.60" shape="83.20,92.00 116.80,92.00"/>
        <lane id=":B1_20_2" index="2" speed="13.89" length="33.60" shape="83.20,95.20 116.80,95.20"/>
        <lane id=":B1_20_3" index="3" speed="13.89" length="33.60" shape="83.20,98.40 116.80,98.40"/>
    </edge>
    <edge id=":B2_0" function="internal">
        <lane id=":B2_0_0" index="0" speed="6.51" length="9.03" shape="88.80,216.80 88.45,214.35 87.40,212.60 85.65,211.55 83.20,211.20"/>
        <lane id=":B2_0_1" index="1" speed="7.33" length="11.73" shape="88.80,216.80 88.45,212.95 87.40,210.20 85.65,208.55 83.20,208.00"/>
    </edge>
    <edge id=":B2_2" function="internal">
        <lane id=":B2_2_0" index="0" speed="13.89" length="33.60" shape="88.80,216.80 88.80,183.20"/>
        <lane id=":B2_2_1" index="1" speed="13.89" length="33.60" shape="92.00,216.80 92.00,183.20"/>
        <lane id=":B2_2_2" index="2" speed="13.89" length="33.60" shape="95.20,216.80 95.20,183.20"/>
        <lane id=":B2_2_3" index="3" speed="13.89" length="33.60" shape="98.40,216.80 98.40,183.20"/>
    </edge>
    <edge id=":B2_6" function="internal">
        <lane id=":B2_6_0" index="0" speed="6.51" length="9.03" shape="116.80,211.20 114.35,211.55 112.60,212.60 111.55,214.35 111.20,216.80"/>
        <lane id=":B2_6_1" index="1" speed="7.33" length="11.73" shape="116.80,211.20 112.95,211.55 110.20,212.60 108.55,214.35 108.00,216.80"/>
    </edge>
    <edge id=":B2_8" function="internal">
        <lane id=":B2_8_0" index="0" speed="13.89" length="33.60" shape="116.80,211.20 83.20,211.20"/>
        <lane id=":B2_8_1" index="1" speed="13.89" length="33.60" shape="116.80,208.00 83.20,208.00"/>
        <lane id=":B2_8_2" index="2" speed="13.89" length="33.60" shape="116.80,204.80 83.20,204.80"/>
        <lane id=":B2_8_3" index="3" speed="13.89" length="33.60" shape="116.80,201.60 83.20,201.60"/>
    </edge>
    <edge id=":B2_12" function="internal">
        <lane id=":B2_12_0" index="0" speed="6.51" length="9.03" shape="111.20,183.20 111.55,185.65 112.60,187.40 114.35,188.45 116.80,188.80"/>
        <lane id=":B2_12_1" index="1" speed="7.33" length="11.73" shape="111.20,183.20 111.55,187.05 112.60,189.80 114.35,191.45 116.80,192.00"/>
    </edge>
    <edge id=":B2_14" function="internal">
        <lane id=":B2_14_0" index="0" speed="13.89" length="33.60" shape="111.20,183.20 111.20,216.80"/>
        <lane id=":B2_14_1" index="1" speed="13.89" length="33.60" shape="108.00,183.20 108.00,216.80"/>
        <lane id=":B2_14_2" index="2" speed="13.89" length="33.60" shape="104.80,183.20 104.80,216.80"/>
        <lane id=":B2_14_3" index="3" speed="13.89" length="33.60" shape="101.60,183.20 101.60,216.80"/>
    </edge>
    <edge id=":B2_18" function="internal">
        <lane id=":B2_18_0" index="0" speed="6.51" length="9.03" shape="83.20,188.80 85.65,188.45 87.40,187.40 88.45,185.65 88.80,183.20"/>
        <lane id=":B2_18_1" index="1" speed="7.33" length="11.73" shape="83.20,188.80 87.05,188.45 89.80,187.40 91.45,185.65 92.00,183.20"/>
    </edge>
    <edge id=":B2_20" function="internal">
        <lane id=":B2_20_0" index="0" speed="13.89" length="33.60" shape="83.20,188.80 116.80,188.80"/>
        <lane id=":B2_20_1" index="1" speed="13.89" length="33.60" shape="83.20,192.00 116.80,192.00"/>
        <lane id=":B2_20_2" index="2" speed="13.89" length="33.60" shape="83.20,195.20 116.80,195.20"/>
        <lane id=":B2_20_3" index="3" speed="13.89" length="33.60" shape="83.20,198.40 116.80,198.40"/>
    </edge>
    <edge id=":C1_0" function="internal">
        <lane id=":C1_0_0" index="0" speed="6.51" length="9.03" shape="188.80,116.80 188.45,114.35 187.40,112.60 185.65,111.55 183.20,111.20"/>
        <lane id=":C1_0_1" index="1" speed="7.33" length="11.73" shape="188.80,116.80 188.45,112.95 187.40,110.20 185.65,108.55 183.20,108.00"/>
    </edge>
    <edge id=":C1_2" function="internal">
        <lane id=":C1_2_0" index="0" speed="13.89" length="33.60" shape="188.80,116.80 188.80,83.20"/>
        <lane id=":C1_2_1" index="1" speed="13.89" length="33.60" shape="192.00,116.80 192.00,83.20"/>
        <lane id=":C1_2_2" index="2" speed="13.89" length="33.60" shape="195.20,116.80 195.20,83.20"/>
        <lane id=":C1_2_3" index="3" speed="13.89" length="33.60" shape="198.40,116.80 198.40,83.20"/>
    </edge>
    <edge id=":C1_6" function="internal">
        <lane id=":C1_6_0" index="0" speed="6.51" length="9.03" shape="216.80,111.20 214.35,111.55 212.60,112.60 211.55,114.35 211.20,116.80"/>
        <lane id=":C1_6_1" index="1" speed="7.33" length="11.73" shape="216.80,111.20 212.95,111.55 210.20,112.60 208.55,114.35 208.00,116.80"/>
    </edge>
    <edge id=":C1_8" function="internal">
        <lane id=":C1_8_0" index="0" speed="13.89" length="33.60" shape="216.80,111.20 183.20,111.20"/>
        <lane id=":C1_8_1" index="1" speed="13.89" length="33.60" shape="216.80,108.00 183.20,108.00"/>
        <lane id=":C1_8_2" index="2" speed="13.89" length="33.60" shape="216.80,104.80 183.20,104.80"/>
        <lane id=":C1_8_3" index="3" speed="13.89" length="33.60" shape="216.80,101.60 183.20,101.60"/>
    </edge>
    <edge id=":C1_12" function="internal">
        <lane id=":C1_12_0" index="0" speed="6.51" length="9.03" shape="211.20,83.20 211.55,85.65 212.60,87.40 214.35,88.45 216.80,88.80"/>
        <lane id=":C1_12_1" index="1" speed="7.33" length="11.73" shape="211.20,83.20 211.55,87.05 212.60,89.80 214.35,91.45 216.80,92.00"/>
    </edge>
    <edge id=":C1_14" function="internal">
        <lane id=":C1_14_0" index="0" speed="13.89" length="33.60" shape="211.20,83.20 211.20,116.80"/>
        <lane id=":C1_14_1" index="1" speed="13.89" length="33.60" shape="208.00,83.20 208.00,116.80"/>
        <lane id=":C1_14_2" index="2" speed="13.89" length="33.60" shape="204.80,83.20 204.80,116.80"/>
        <lane id=":C1_14_3" index="3" speed="13.89" length="33.60" shape="201.60,83.20 201.60,116.80"/>
    </edge>
    <edge id=":C1_18" function="internal">
        <lane id=":C1_18_0" index="0" speed="6.51" length="9.03" shape="183.20,88.80 185.65,88.45 187.40,87.40 188.45,85.65 188.80,83.20"/>
        <lane id=":C1_18_1" index="1" speed="7.33" length="11.73" shape="183.20,88.80 187.05,88.45 189.80,87.40 191.45,85.65 192.00,83.20"/>
    </edge>
    <edge id=":C1_20" function="internal">
        <lane id=":C1_20_0" index="0" speed="13.89" length="33.60" shape="183.20,88.80 216.80,88.80"/>
        <lane id=":C1_20_1" index="1" speed="13.89" length="33.60" shape="183.20,92.00 216.80,92.00"/>
        <lane id=":C1_20_2" index="2" speed="13.89" length="33.60" shape="183.20,95.20 216.80,95.20"/>
        <lane id=":C1_20_3" index="3" speed="13.89" length="33.60" shape="183.20,98.40 216.80,98.40"/>
    </edge>
    <edge id=":C2_0" function="internal">
        <lane id=":C2_0_0" index="0" speed="6.51" length="9.03" shape="188.80,216.80 188.45,214.35 187.40,212.60 185.65,211.55 183.20,211.20"/>
        <lane id=":C2_0_1" index="1" speed="7.33" length="11.73" shape="188.80,216.80 188.45,212.95 187.40,210.20 185.65,208.55 183.20,208.00"/>
    </edge>
    <edge id=":C2_2" function="internal">
        <lane id=":C2_2_0" index="0" speed="13.89" length="33.60" shape="188.80,216.80 188.80,183.20"/>
        <lane id=":C2_2_1" index="1" speed="13.89" length="33.60" shape="192.00,216.80 192.00,183.20"/>
        <lane id=":C2_2_2" index="2" speed="13.89" length="33.60" shape="195.20,216.80 195.20,183.20"/>
        <lane id=":C2_2_3" index="3" speed="13.89" length="33.60" shape="198.40,216.80 198.40,183.20"/>
    </edge>
    <edge id=":C2_6" function="internal">
        <lane id=":C2_6_0" index="0" speed="6.51" length="9.03" shape="216.80,211.20 214.35,211.55 212.60,212.60 211.55,214.35 211.20,216.80"/>
        <lane id=":C2_6_1" index="1" speed="7.33" length="11.73" shape="216.80,211.20 212.95,211.55 210.20,212.60 208.55,214.35 208.00,216.80"/>
    </edge>
    <edge id=":C2_8" function="internal">
        <lane id=":C2_8_0" index="0" speed="13.89" length="33.60" shape="216.80,211.20 183.20,211.20"/>
        <lane id=":C2_8_1" index="1" speed="13.89" length="33.60" shape="216.80,208.00 183.20,208.00"/>
        <lane id=":C2_8_2" index="2" speed="13.89" length="33.60" shape="216.80,204.80 183.20,204.80"/>
        <lane id=":C2_8_3" index="3" speed="13.89" length="33.60" shape="216.80,201.60 183.20,201.60"/>
    </edge>
    <edge id=":C2_12" function="internal">
        <lane id=":C2_12_0" index="0" speed="6.51" length="9.03" shape="211.20,183.20 211.55,185.65 212.60,187.40 214.35,188.45 216.80,188.80"/>
        <lane id=":C2_12_1" index="1" speed="7.33" length="11.73" shape="211.20,183.20 211.55,187.05 212.60,189.80 214.35,191.45 216.80,192.00"/>
    </edge>
    <edge id=":C2_14" function="internal">
        <lane id=":C2_14_0" index="0" speed="13.89" length="33.60" shape="211.20,183.20 211.20,216.80"/>
        <lane id=":C2_14_1" index="1" speed="13.89" length="33.60" shape="208.00,183.20 208.00,216.80"/>
        <lane id=":C2_14_2" index="2" speed="13.89" length="33.60" shape="204.80,183.20 204.80,216.80"/>
        <lane id=":C2_14_3" index="3" speed="13.89" length="33.60" shape="201.60,183.20 201.60,216.80"/>
    </edge>
    <edge id=":C2_18" function="internal">
        <lane id=":C2_18_0" index="0" speed="6.51" length="9.03" shape="183.20,188.80 185.65,188.45 187.40,187.40 188.45,185.65 188.80,183.20"/>
        <lane id=":C2_18_1" index="1" speed="7.33" length="11.73" shape="183.20,188.80 187.05,188.45 189.80,187.40 191.45,185.65 192.00,183.20"/>
    </edge>
    <edge id=":C2_20" function="internal">
        <lane id=":C2_20_0" index="0" speed="13.89" length="33.60" shape="183.20,188.80 216.80,188.80"/>
        <lane id=":C2_20_1" index="1" speed="13.89" length="33.60" shape="183.20,192.00 216.80,192.00"/>
        <lane id=":C2_20_2" index="2" speed="13.89" length="33.60" shape="183.20,195.20 216.80,195.20"/>
        <lane id=":C2_20_3" index="3" speed="13.89" length="33.60" shape="183.20,198.40 216.80,198.40"/>
    </edge>

    <edge id="A1B1" from="A1" to="B1" priority="-1">
        <lane id="A1B1_0" index="0" speed="13.89" length="83.20" shape="0.00,88.80 83.20,88.80"/>
        <lane id="A1B1_1" index="1" speed="13.89" length="83.20" shape="0.00,92.00 83.20,92.00"/>
        <lane id="A1B1_2" index="2" speed="13.89" length="83.20" shape="0.00,95.20 83.20,95.20"/>
        <lane id="A1B1_3" index="3" speed="13.89" length="83.20" shape="0.00,98.40 83.20,98.40"/>
    </edge>
    <edge id="A2B2" from="A2" to="B2" priority="-1">
        <lane id="A2B2_0" index="0" speed="13.89" length="83.20" shape="0.00,188.80 83.20,188.80"/>
        <lane id="A2B2_1" index="1" speed="13.89" length="83.20" shape="0.00,192.00 83.20,192.00"/>
        <lane id="A2B2_2" index="2" speed="13.89" length="83.20" shape="0.00,195.20 83.20,195.20"/>
        <lane id="A2B2_3" index="3" speed="13.89" length="83.20" shape="0.00,198.40 83.20,198.40"/>
    </edge>
    <edge id="B0B1" from="B0" to="B1" priority="-1">
        <lane id="B0B1_0" index="0" speed="13.89" length="83.20" shape="111.20,0.00 111.20,83.20"/>
        <lane id="B0B1_1" index="1" speed="13.89" length="83.20" shape="108.00,0.00 108.00,83.20"/>
        <lane id="B0B1_2" index="2" speed="13.89" length="83.20" shape="104.80,0.00 104.80,83.20"/>
        <lane id="B0B1_3" index="3" speed="13.89" length="83.20" shape="101.60,0.00 101.60,83.20"/>
    </edge>
    <edge id="B1A1" from="B1" to="A1" priority="-1">
        <lane id="B1A1_0" index="0" speed="13.89" length="83.20" shape="83.20,111.20 0.00,111.20"/>
        <lane id="B1A1_1" index="1" speed="13.89" length="83.20" shape="83.20,108.00 0.00,108.00"/>
        <lane id="B1A1_2" index="2" speed="13.89" length="83.20" shape="83.20,104.80 0.00,104.80"/>
        <lane id="B1A1_3" index="3" speed="13.89" length="83.20" shape="83.20,101.60 0.00,101.60"/>
    </edge>
    <edge id="B1B0" from="B1" to="B0" priority="-1">
        <lane id="B1B0_0" index="0" speed="13.89" length="83.20" shape="88.80,83.20 88.80,0.00"/>
        <lane id="B1B0_1" index="1" speed="13.89" length="83.20" shape="92.00,83.20 92.00,0.00"/>
        <lane id="B1B0_2" index="2" speed="13.89" length="83.20" shape="95.20,83.20 95.20,0.00"/>
        <lane id="B1B0_3" index="3" speed="13.89" length="83.20" shape="98.40,83.20 98.40,0.00"/>
    </edge>
    <edge id="B1B2" from="B1" to="B2" priority="-1">
        <lane id="B1B2_0" index="0" speed="13.89" length="66.40" shape="111.20,116.80 111.20,183.20"/>
        <lane id="B1B2_1" index="1" speed="13.89" length="66.40" shape="108.00,116.80 108.00,183.20"/>
        <lane id="B1B2_2" index="2" speed="13.89" length="66.40" shape="104.80,116.80 104.80,183.20"/>
        <lane id="B1B2_3" index="3" speed="13.89" length="66.40" shape="101.60,116.80 101.60,183.20"/>
    </edge>
    <edge id="B1C1" from="B1" to="C1" priority="-1">
        <lane id="B1C1_0" index="0" speed="13.89" length="66.40" shape="116.80,88.80 183.20,88.80"/>
        <lane id="B1C1_1" index="1" speed="13.89" length="66.40" shape="116.80,92.00 183.20,92.00"/>
        <lane id="B1C1_2" index="2" speed="13.89" length="66.40" shape="116.80,95.20 183.20,95.20"/>
        <lane id="B1C1_3" index="3" speed="13.89" length="66.40" shape="116.80,98.40 183.20,98.40"/>
    </edge>
    <edge id="B2A2" from="B2" to="A2" priority="-1">
        <lane id="B2A2_0" index="0" speed="13.89" length="83.20" shape="83.20,211.20 0.00,211.20"/>
        <lane id="B2A2_1" index="1" speed="13.89" length="83.20" shape="83.20,208.00 0.00,208.00"/>
        <lane id="B2A2_2" index="2" speed="13.89" length="83.20" shape="83.20,204.80 0.00,204.80"/>
        <lane id="B2A2_3" index="3" speed="13.89" length="83.20" shape="83.20,201.60 0.00,201.60"/>
    </edge>
    <edge id="B2B1" from="B2" to="B1" priority="-1">
        <lane id="B2B1_0" index="0" speed="13.89" length="66.40" shape="88.80,183.20 88.80,116.80"/>
        <lane id="B2B1_1" index="1" speed="13.89" length="66.40" shape="92.00,183.20 92.00,116.80"/>
        <lane id="B2B1_2" index="2" speed="13.89" length="66.40" shape="95.20,183.20 95.20,116.80"/>
        <lane id="B2B1_3" index="3" speed="13.89" length="66.40" shape="98.40,183.20 98.40,116.80"/>
    </edge>
    <edge id="B2B3" from="B2" to="B3" priority="-1">
        <lane id="B2B3_0" index="0" speed="13.89" length="83.20" shape="111.20,216.80 111.20,300.00"/>
        <lane id="B2B3_1" index="1" speed="13.89" length="83.20" shape="108.00,216.80 108.00,300.00"/>
        <lane id="B2B3_2" index="2" speed="13.89" length="83.20" shape="104.80,216.80 104.80,300.00"/>
        <lane id="B2B3_3" index="3" speed="13.89" length="83.20" shape="101.60,216.80 101.60,300.00"/>
    </edge>
    <edge id="B2C2" from="B2" to="C2" priority="-1">
        <lane id="B2C2_0" index="0" speed="13.89" length="66.40" shape="116.80,188.80 183.20,188.80"/>
        <lane id="B2C2_1" index="1" speed="13.89" length="66.40" shape="116.80,192.00 183.20,192.00"/>
        <lane id="B2C2_2" index="2" speed="13.89" length="66.40" shape="116.80,195.20 183.20,195.20"/>
        <lane id="B2C2_3" index="3" speed="13.89" length="66.40" shape="116.80,198.40 183.20,198.40"/>
    </edge>
    <edge id="B3B2" from="B3" to="B2" priority="-1">
        <lane id="B3B2_0" index="0" speed="13.89" length="83.20" shape="88.80,300.00 88.80,216.80"/>
        <lane id="B3B2_1" index="1" speed="13.89" length="83.20" shape="92.00,300.00 92.00,216.80"/>
        <lane id="B3B2_2" index="2" speed="13.89" length="83.20" shape="95.20,300.00 95.20,216.80"/>
        <lane id="B3B2_3" index="3" speed="13.89" length="83.20" shape="98.40,300.00 98.40,216.80"/>
    </edge>
    <edge id="C0C1" from="C0" to="C1" priority="-1">
        <lane id="C0C1_0" index="0" speed="13.89" length="83.20" shape="211.20,0.00 211.20,83.20"/>
        <lane id="C0C1_1" index="1" speed="13.89" length="83.20" shape="208.00,0.00 208.00,83.20"/>
        <lane id="C0C1_2" index="2" speed="13.89" length="83.20" shape="204.80,0.00 204.80,83.20"/>
        <lane id="C0C1_3" index="3" speed="13.89" length="83.20" shape="201.60,0.00 201.60,83.20"/>
    </edge>
    <edge id="C1B1" from="C1" to="B1" priority="-1">
        <lane id="C1B1_0" index="0" speed="13.89" length="66.40" shape="183.20,111.20 116.80,111.20"/>
        <lane id="C1B1_1" index="1" speed="13.89" length="66.40" shape="183.20,108.00 116.80,108.00"/>
        <lane id="C1B1_2" index="2" speed="13.89" length="66.40" shape="183.20,104.80 116.80,104.80"/>
        <lane id="C1B1_3" index="3" speed="13.89" length="66.40" shape="183.20,101.60 116.80,101.60"/>
    </edge>
    <edge id="C1C0" from="C1" to="C0" priority="-1">
        <lane id="C1C0_0" index="0" speed="13.89" length="83.20" shape="188.80,83.20 188.80,0.00"/>
        <lane id="C1C0_1" index="1" speed="13.89" length="83.20" shape="192.00,83.20 192.00,0.00"/>
        <lane id="C1C0_2" index="2" speed="13.89" length="83.20" shape="195.20,83.20 195.20,0.00"/>
        <lane id="C1C0_3" index="3" speed="13.89" length="83.20" shape="198.40,83.20 198.40,0.00"/>
    </edge>
    <edge id="C1C2" from="C1" to="C2" priority="-1">
        <lane id="C1C2_0" index="0" speed="13.89" length="66.40" shape="211.20,116.80 211.20,183.20"/>
        <lane id="C1C2_1" index="1" speed="13.89" length="66.40" shape="208.00,116.80 208.00,183.20"/>
        <lane id="C1C2_2" index="2" speed="13.89" length="66.40" shape="204.80,116.80 204.80,183.20"/>
        <lane id="C1C2_3" index="3" speed="13.89" length="66.40" shape="201.60,116.80 201.60,183.20"/>
    </edge>
    <edge id="C1D1" from="C1" to="D1" priority="-1">
        <lane id="C1D1_0" index="0" speed="13.89" length="83.20" shape="216.80,88.80 300.00,88.80"/>
        <lane id="C1D1_1" index="1" speed="13.89" length="83.20" shape="216.80,92.00 300.00,92.00"/>
        <lane id="C1D1_2" index="2" speed="13.89" length="83.20" shape="216.80,95.20 300.00,95.20"/>
        <lane id="C1D1_3" index="3" speed="13.89" length="83.20" shape="216.80,98.40 300.00,98.40"/>
    </edge>
    <edge id="C2B2" from="C2" to="B2" priority="-1">
        <lane id="C2B2_0" index="0" speed="13.89" length="66.40" shape="183.20,211.20 116.80,211.20"/>
        <lane id="C2B2_1" index="1" speed="13.89" length="66.40" shape="183.20,208.00 116.80,208.00"/>
        <lane id="C2B2_2" index="2" speed="13.89" length="66.40" shape="183.20,204.80 116.80,204.80"/>
        <lane id="C2B2_3" index="3" speed="13.89" length="66.40" shape="183.20,201.60 116.80,201.60"/>
    </edge>
    <edge id="C2C1" from="C2" to="C1" priority="-1">
        <lane id="C2C1_0" index="0" speed="13.89" length="66.40" shape="188.80,183.20 188.80,116.80"/>
        <lane id="C2C1_1" index="1" speed="13.89" length="66.40" shape="192.00,183.20 192.00,116.80"/>
        <lane id="C2C1_2" index="2" speed="13.89" length="66.40" shape="195.20,183.20 195.20,116.80"/>
        <lane id="C2C1_3" index="3" speed="13.89" length="66.40" shape="198.40,183.20 198.40,116.80"/>
    </edge>
    <edge id="C2C3" from="C2" to="C3" priority="-1">
        <lane id="C2C3_0" index="0" speed="13.89" length="83.20" shape="211.20,216.80 211.20,300.00"/>
        <lane id="C2C3_1" index="1" speed="13.89" length="83.20" shape="208.00,216.80 208.00,300.00"/>
        <lane id="C2C3_2" index="2" speed="13.89" length="83.20" shape="204.80,216.80 204.80,300.00"/>
        <lane id="C2C3_3" index="3" speed="13.89" length="83.20" shape="201.60,216.80 201.60,300.00"/>
    </edge>
    <edge id="C2D2" from="C2" to="D2" priority="-1">
        <lane id="C2D2_0" index="0" speed="13.89" length="83.20" shape="216.80,188.80 300.00,188.80"/>
        <lane id="C2D2_1" index="1" speed="13.89" length="83.20" shape="216.80,192.00 300.00,192.00"/>
        <lane id="C2D2_2" index="2" speed="13.89" length="83.20" shape="216.80,195.20 300.00,195.20"/>
        <lane id="C2D2_3" index="3" speed="13.89" length="83.20" shape="216.80,198.40 300.00,198.40"/>
    </edge>
    <edge id="C3C2" from="C3" to="C2" priority="-1">
        <lane id="C3C2_0" index="0" speed="13.89" length="83.20" shape="188.80,300.00 188.80,216.80"/>
        <lane id="C3C2_1" index="1" speed="13.89" length="83.20" shape="192.00,300.00 192.00,216.80"/>
        <lane id="C3C2_2" index="2" speed="13.89" length="83.20" shape="195.20,300.00 195.20,216.80"/>
        <lane id="C3C2_3" index="3" speed="13.89" length="83.20" shape="198.40,300.00 198.40,216.80"/>
    </edge>
    <edge id="D1C1" from="D1" to="C1" priority="-1">
        <lane id="D1C1_0" index="0" speed="13.89" length="83.20" shape="300.00,111.20 216.80,111.20"/>
        <lane id="D1C1_1" index="1" speed="13.89" length="83.20" shape="300.00,108.00 216.80,108.00"/>
        <lane id="D1C1_2" index="2" speed="13.89" length="83.20" shape="300.00,104.80 216.80,104.80"/>
        <lane id="D1C1_3" index="3" speed="13.89" length="83.20" shape="300.00,101.60 216.80,101.60"/>
    </edge>
    <edge id="D2C2" from="D2" to="C2" priority="-1">
        <lane id="D2C2_0" index="0" speed="13.89" length="83.20" shape="300.00,211.20 216.80,211.20"/>
        <lane id="D2C2_1" index="1" speed="13.89" length="83.20" shape="300.00,208.00 216.80,208.00"/>
        <lane id="D2C2_2" index="2" speed="13.89" length="83.20" shape="300.00,204.80 216.80,204.80"/>
        <lane id="D2C2_3" index="3" speed="13.89" length="83.20" shape="300.00,201.60 216.80,201.60"/>
    </edge>

    <!-- <tlLogic id="B1" type="static" programID="0" offset="0">
        <phase duration="42" state="GGGGGGrrrrrrGGGGGGrrrrrr"/>
        <phase duration="3"  state="yyyyyyrrrrrryyyyyyrrrrrr"/>
        <phase duration="42" state="rrrrrrGGGGGGrrrrrrGGGGGG"/>
        <phase duration="3"  state="rrrrrryyyyyyrrrrrryyyyyy"/>
    </tlLogic>
    <tlLogic id="B2" type="static" programID="0" offset="0">
        <phase duration="42" state="GGGGGGrrrrrrGGGGGGrrrrrr"/>
        <phase duration="3"  state="yyyyyyrrrrrryyyyyyrrrrrr"/>
        <phase duration="42" state="rrrrrrGGGGGGrrrrrrGGGGGG"/>
        <phase duration="3"  state="rrrrrryyyyyyrrrrrryyyyyy"/>
    </tlLogic>
    <tlLogic id="C1" type="static" programID="0" offset="0">
        <phase duration="42" state="GGGGGGrrrrrrGGGGGGrrrrrr"/>
        <phase duration="3"  state="yyyyyyrrrrrryyyyyyrrrrrr"/>
        <phase duration="42" state="rrrrrrGGGGGGrrrrrrGGGGGG"/>
        <phase duration="3"  state="rrrrrryyyyyyrrrrrryyyyyy"/>
    </tlLogic>
    <tlLogic id="C2" type="static" programID="0" offset="0">
        <phase duration="42" state="GGGGGGrrrrrrGGGGGGrrrrrr"/>
        <phase duration="3"  state="yyyyyyrrrrrryyyyyyrrrrrr"/>
        <phase duration="42" state="rrrrrrGGGGGGrrrrrrGGGGGG"/>
        <phase duration="3"  state="rrrrrryyyyyyrrrrrryyyyyy"/>
    </tlLogic> -->

    <tlLogic id="B1" type="static" programID="0" offset="0">
        <phase duration="500" state="GGGGGGrrrrrrGGGGGGrrrrrr"/>
        <phase duration="500"  state="yyyyyyrrrrrryyyyyyrrrrrr"/>
        <phase duration="500" state="rrrrrrGGGGGGrrrrrrGGGGGG"/>
        <phase duration="500"  state="rrrrrryyyyyyrrrrrryyyyyy"/>
    </tlLogic>
    <tlLogic id="B2" type="static" programID="0" offset="0">
        <phase duration="500" state="GGGGGGrrrrrrGGGGGGrrrrrr"/>
        <phase duration="500"  state="yyyyyyrrrrrryyyyyyrrrrrr"/>
        <phase duration="500" state="rrrrrrGGGGGGrrrrrrGGGGGG"/>
        <phase duration="500"  state="rrrrrryyyyyyrrrrrryyyyyy"/>
    </tlLogic>
    <tlLogic id="C1" type="static" programID="0" offset="0">
        <phase duration="500" state="GGGGGGrrrrrrGGGGGGrrrrrr"/>
        <phase duration="500"  state="yyyyyyrrrrrryyyyyyrrrrrr"/>
        <phase duration="500" state="rrrrrrGGGGGGrrrrrrGGGGGG"/>
        <phase duration="500"  state="rrrrrryyyyyyrrrrrryyyyyy"/>
    </tlLogic>
    <tlLogic id="C2" type="static" programID="0" offset="0">
        <phase duration="500" state="GGGGGGrrrrrrGGGGGGrrrrrr"/>
        <phase duration="500"  state="yyyyyyrrrrrryyyyyyrrrrrr"/>
        <phase duration="500" state="rrrrrrGGGGGGrrrrrrGGGGGG"/>
        <phase duration="500"  state="rrrrrryyyyyyrrrrrryyyyyy"/>
    </tlLogic>

    <junction id="A1" type="dead_end" x="0.00" y="100.00" incLanes="B1A1_0 B1A1_1 B1A1_2 B1A1_3" intLanes="" shape="0.00,100.00 0.00,112.80 0.00,100.00"/>
    <junction id="A2" type="dead_end" x="0.00" y="200.00" incLanes="B2A2_0 B2A2_1 B2A2_2 B2A2_3" intLanes="" shape="0.00,200.00 0.00,212.80 0.00,200.00"/>
    <junction id="B0" type="dead_end" x="100.00" y="0.00" incLanes="B1B0_0 B1B0_1 B1B0_2 B1B0_3" intLanes="" shape="100.00,0.00 87.20,0.00 100.00,0.00"/>
    <junction id="B1" type="traffic_light" x="100.00" y="100.00" incLanes="B2B1_0 B2B1_1 B2B1_2 B2B1_3 C1B1_0 C1B1_1 C1B1_2 C1B1_3 B0B1_0 B0B1_1 B0B1_2 B0B1_3 A1B1_0 A1B1_1 A1B1_2 A1B1_3" intLanes=":B1_0_0 :B1_0_1 :B1_2_0 :B1_2_1 :B1_2_2 :B1_2_3 :B1_6_0 :B1_6_1 :B1_8_0 :B1_8_1 :B1_8_2 :B1_8_3 :B1_12_0 :B1_12_1 :B1_14_0 :B1_14_1 :B1_14_2 :B1_14_3 :B1_18_0 :B1_18_1 :B1_20_0 :B1_20_1 :B1_20_2 :B1_20_3" shape="87.20,116.80 112.80,116.80 113.24,114.58 113.80,113.80 114.58,113.24 115.58,112.91 116.80,112.80 116.80,87.20 114.58,86.76 113.80,86.20 113.24,85.42 112.91,84.42 112.80,83.20 87.20,83.20 86.76,85.42 86.20,86.20 85.42,86.76 84.42,87.09 83.20,87.20 83.20,112.80 85.42,113.24 86.20,113.80 86.76,114.58 87.09,115.58">
        <request index="0"  response="000000000000000000000000" foes="000000000000111100000000" cont="0"/>
        <request index="1"  response="000000000000000000000000" foes="000000000000111100000000" cont="0"/>
        <request index="2"  response="000000000000000000000000" foes="111111000000111100000000" cont="0"/>
        <request index="3"  response="000000000000000000000000" foes="111111000000111100000000" cont="0"/>