<?xml version="1.0" encoding="UTF-8"?>

<!-- generated on 2025-03-31 12:56:42.452982 by randomTrips.py v1_21_0+0000-d7b3b481c43
<configuration>
    <net-file value="data/network/grid_9inter.net.xml"/>
    <output-trip-file value="data/route/randomTrips.rou.xml"/>
    <trip-attributes value="departSpeed=&quot;10.0&quot;"/>
    <fringe-factor value="max"/>
    <allow-fringe value="True"/>
    <seed value="9"/>
    <validate value="True"/>
    <end value="5400.0"/>
</configuration>
-->

<!-- generated on 2025-03-31 12:56:42 by Eclipse SUMO duarouter Version 1.21.0
<duarouterConfiguration xmlns:xsi="http://www.w3.org/2001/XMLSchema-instance" xsi:noNamespaceSchemaLocation="http://sumo.dlr.de/xsd/duarouterConfiguration.xsd">

    <input>
        <net-file value="data/network/grid_9inter.net.xml"/>
        <route-files value="data/route/randomTrips.rou.xml"/>
    </input>

    <output>
        <output-file value="data/route/randomTrips.rou.xml.tmp"/>
        <alternatives-output value="NUL"/>
        <write-trips value="true"/>
    </output>

    <time>
        <begin value="0.0"/>
        <end value="5400.0"/>
    </time>

    <report>
        <no-warnings value="true"/>
        <ignore-errors value="true"/>
        <no-step-log value="true"/>
    </report>

</duarouterConfiguration>
-->

<routes xmlns:xsi="http://www.w3.org/2001/XMLSchema-instance" xsi:noNamespaceSchemaLocation="http://sumo.dlr.de/xsd/routes_file.xsd">
    <trip id="0" depart="0.00" departSpeed="10.00" from="C0C1" to="B3B4"/>
    <trip id="3" depart="3.00" departSpeed="10.00" from="E2D2" to="B1A1"/>
    <trip id="4" depart="4.00" departSpeed="10.00" from="C4C3" to="D1D0"/>
    <trip id="6" depart="6.00" departSpeed="10.00" from="D4D3" to="C1C0"/>
    <trip id="8" depart="8.00" departSpeed="10.00" from="A3B3" to="B1B0"/>
    <trip id="9" depart="9.00" departSpeed="10.00" from="C4C3" to="D3E3"/>
    <trip id="10" depart="10.00" departSpeed="10.00" from="D0D1" to="D2E2"/>
    <trip id="15" depart="15.00" departSpeed="10.00" from="B0B1" to="B2A2"/>
    <trip id="16" depart="16.00" departSpeed="10.00" from="B0B1" to="D2E2"/>
    <trip id="18" depart="18.00" departSpeed="10.00" from="E2D2" to="B1A1"/>
    <trip id="20" depart="20.00" departSpeed="10.00" from="A1B1" to="C1C0"/>
    <trip id="24" depart="24.00" departSpeed="10.00" from="A3B3" to="B1A1"/>
    <trip id="25" depart="25.00" departSpeed="10.00" from="A2B2" to="C3C4"/>
    <trip id="26" depart="26.00" departSpeed="10.00" from="A1B1" to="B1B0"/>
    <trip id="27" depart="27.00" departSpeed="10.00" from="C0C1" to="D3E3"/>
    <trip id="28" depart="28.00" departSpeed="10.00" from="C0C1" to="B3B4"/>
    <trip id="30" depart="30.00" departSpeed="10.00" from="C4C3" to="B2A2"/>
    <trip id="31" depart="31.00" departSpeed="10.00" from="D0D1" to="D3E3"/>
    <trip id="34" depart="34.00" departSpeed="10.00" from="B0B1" to="D3E3"/>
    <trip id="36" depart="36.00" departSpeed="10.00" from="D4D3" to="D3E3"/>
    <trip id="37" depart="37.00" departSpeed="10.00" from="A3B3" to="D1D0"/>
    <trip id="39" depart="39.00" departSpeed="10.00" from="D4D3" to="D1D0"/>
    <trip id="44" depart="44.00" departSpeed="10.00" from="C4C3" to="B1A1"/>
    <trip id="46" depart="46.00" departSpeed="10.00" from="C0C1" to="B2A2"/>
    <trip id="48" depart="48.00" departSpeed="10.00" from="A2B2" to="D1D0"/>
    <trip id="49" depart="49.00" departSpeed="10.00" from="A2B2" to="D2E2"/>
    <trip id="51" depart="51.00" departSpeed="10.00" from="E1D1" to="C1C0"/>
    <trip id="52" depart="52.00" departSpeed="10.00" from="D4D3" to="B2A2"/>
    <trip id="53" depart="53.00" departSpeed="10.00" from="D4D3" to="C1C0"/>
    <trip id="54" depart="54.00" departSpeed="10.00" from="A3B3" to="D3E3"/>
    <trip id="56" depart="56.00" departSpeed="10.00" from="E2D2" to="B3B4"/>
    <trip id="57" depart="57.00" departSpeed="10.00" from="D4D3" to="B2A2"/>
    <trip id="60" depart="60.00" departSpeed="10.00" from="A3B3" to="D3E3"/>
    <trip id="63" depart="63.00" departSpeed="10.00" from="A3B3" to="B3B4"/>
    <trip id="64" depart="64.00" departSpeed="10.00" from="D0D1" to="D3E3"/>
    <trip id="65" depart="65.00" departSpeed="10.00" from="B4B3" to="B1B0"/>
    <trip id="67" depart="67.00" departSpeed="10.00" from="A2B2" to="C3C4"/>
    <trip id="68" depart="68.00" departSpeed="10.00" from="D4D3" to="B1A1"/>
    <trip id="69" depart="69.00" departSpeed="10.00" from="C0C1" to="D1E1"/>
    <trip id="70" depart="70.00" departSpeed="10.00" from="E1D1" to="B3B4"/>
    <trip id="71" depart="71.00" departSpeed="10.00" from="E2D2" to="B2A2"/>
    <trip id="72" depart="72.00" departSpeed="10.00" from="D4D3" to="D2E2"/>
    <trip id="73" depart="73.00" departSpeed="10.00" from="E2D2" to="C1C0"/>
    <trip id="74" depart="74.00" departSpeed="10.00" from="A2B2" to="B1A1"/>
    <trip id="75" depart="75.00" departSpeed="10.00" from="C4C3" to="B2A2"/>
    <trip id="77" depart="77.00" departSpeed="10.00" from="E1D1" to="B2A2"/>
    <trip id="79" depart="79.00" departSpeed="10.00" from="C0C1" to="C3C4"/>
    <trip id="80" depart="80.00" departSpeed="10.00" from="B4B3" to="B2A2"/>
    <trip id="81" depart="81.00" departSpeed="10.00" from="C0C1" to="D3E3"/>
    <trip id="82" depart="82.00" departSpeed="10.00" from="C4C3" to="D3E3"/>
    <trip id="84" depart="84.00" departSpeed="10.00" from="E2D2" to="C3C4"/>
    <trip id="85" depart="85.00" departSpeed="10.00" from="C4C3" to="C3C4"/>
    <trip id="86" depart="86.00" departSpeed="10.00" from="E2D2" to="B1A1"/>
    <trip id="88" depart="88.00" departSpeed="10.00" from="B0B1" to="D1E1"/>
    <trip id="90" depart="90.00" departSpeed="10.00" from="D4D3" to="C1C0"/>
    <trip id="91" depart="91.00" departSpeed="10.00" from="C0C1" to="D1D0"/>
    <trip id="92" depart="92.00" departSpeed="10.00" from="A1B1" to="D1D0"/>
    <trip id="94" depart="94.00" departSpeed="10.00" from="A3B3" to="D2E2"/>
    <trip id="95" depart="95.00" departSpeed="10.00" from="D4D3" to="D1D0"/>
    <trip id="96" depart="96.00" departSpeed="10.00" from="E2D2" to="B1A1"/>
    <trip id="98" depart="98.00" departSpeed="10.00" from="D4D3" to="B3B4"/>
    <trip id="102" depart="102.00" departSpeed="10.00" from="C0C1" to="C3C4"/>
    <trip id="106" depart="106.00" departSpeed="10.00" from="D0D1" to="D3E3"/>
    <trip id="108" depart="108.00" departSpeed="10.00" from="A2B2" to="B3B4"/>
    <trip id="109" depart="109.00" departSpeed="10.00" from="A3B3" to="D2E2"/>
    <trip id="110" depart="110.00" departSpeed="10.00" from="A3B3" to="B2A2"/>
    <trip id="111" depart="111.00" departSpeed="10.00" from="A2B2" to="B1B0"/>
    <trip id="114" depart="114.00" departSpeed="10.00" from="C0C1" to="C3C4"/>
    <trip id="117" depart="117.00" departSpeed="10.00" from="C4C3" to="B2A2"/>
    <trip id="118" depart="118.00" departSpeed="10.00" from="C0C1" to="D3E3"/>
    <trip id="119" depart="119.00" departSpeed="10.00" from="A1B1" to="B1B0"/>
    <trip id="120" depart="120.00" departSpeed="10.00" from="E1D1" to="B1A1"/>
    <trip id="124" depart="124.00" departSpeed="10.00" from="B0B1" to="D2E2"/>
    <trip id="126" depart="126.00" departSpeed="10.00" from="E2D2" to="D3E3"/>
    <trip id="127" depart="127.00" departSpeed="10.00" from="E2D2" to="D3E3"/>
    <trip id="129" depart="129.00" departSpeed="10.00" from="B0B1" to="B2A2"/>
    <trip id="132" depart="132.00" departSpeed="10.00" from="B4B3" to="B2A2"/>
    <trip id="133" depart="133.00" departSpeed="10.00" from="B0B1" to="C1C0"/>
    <trip id="135" depart="135.00" departSpeed="10.00" from="C0C1" to="B2A2"/>
    <trip id="136" depart="136.00" departSpeed="10.00" from="B4B3" to="B3A3"/>
    <trip id="137" depart="137.00" departSpeed="10.00" from="A3B3" to="C3C4"/>
    <trip id="141" depart="141.00" departSpeed="10.00" from="C0C1" to="D1D0"/>
    <trip id="142" depart="142.00" departSpeed="10.00" from="E1D1" to="D3D4"/>
    <trip id="143" depart="143.00" departSpeed="10.00" from="D4D3" to="B2A2"/>
    <trip id="144" depart="144.00" departSpeed="10.00" from="C4C3" to="B3B4"/>
    <trip id="149" depart="149.00" departSpeed="10.00" from="D4D3" to="B3A3"/>
    <trip id="150" depart="150.00" departSpeed="10.00" from="C4C3" to="B1A1"/>
    <trip id="152" depart="152.00" departSpeed="10.00" from="A1B1" to="B1B0"/>
    <trip id="153" depart="153.00" departSpeed="10.00" from="A2B2" to="B1B0"/>
    <trip id="154" depart="154.00" departSpeed="10.00" from="E1D1" to="D3E3"/>
    <trip id="156" depart="156.00" departSpeed="10.00" from="E2D2" to="C3C4"/>
    <trip id="158" depart="158.00" departSpeed="10.00" from="B4B3" to="B3A3"/>
    <trip id="159" depart="159.00" departSpeed="10.00" from="B0B1" to="B3B4"/>
    <trip id="160" depart="160.00" departSpeed="10.00" from="A3B3" to="D1D0"/>
    <trip id="161" depart="161.00" departSpeed="10.00" from="E2D2" to="C3C4"/>
    <trip id="162" depart="162.00" departSpeed="10.00" from="A1B1" to="D1E1"/>
    <trip id="163" depart="163.00" departSpeed="10.00" from="A1B1" to="C1C0"/>
    <trip id="165" depart="165.00" departSpeed="10.00" from="E2D2" to="D2E2"/>
    <trip id="167" depart="167.00" departSpeed="10.00" from="C0C1" to="D1E1"/>
    <trip id="169" depart="169.00" departSpeed="10.00" from="D4D3" to="B3B4"/>
    <trip id="172" depart="172.00" departSpeed="10.00" from="A3B3" to="D2E2"/>
    <trip id="174" depart="174.00" departSpeed="10.00" from="A2B2" to="B2A2"/>
    <trip id="176" depart="176.00" departSpeed="10.00" from="A3B3" to="B2A2"/>
    <trip id="177" depart="177.00" departSpeed="10.00" from="D4D3" to="C1C0"/>
    <trip id="178" depart="178.00" departSpeed="10.00" from="E2D2" to="D3E3"/>
    <trip id="180" depart="180.00" departSpeed="10.00" from="C0C1" to="B1A1"/>
    <trip id="181" depart="181.00" departSpeed="10.00" from="E1D1" to="B3B4"/>
    <trip id="182" depart="182.00" departSpeed="10.00" from="C0C1" to="D1D0"/>
    <trip id="183" depart="183.00" departSpeed="10.00" from="E3D3" to="C3C4"/>
    <trip id="185" depart="185.00" departSpeed="10.00" from="A2B2" to="B3B4"/>
    <trip id="186" depart="186.00" departSpeed="10.00" from="E2D2" to="D2E2"/>
    <trip id="188" depart="188.00" departSpeed="10.00" from="C4C3" to="D3E3"/>
    <trip id="192" depart="192.00" departSpeed="10.00" from="C4C3" to="B2A2"/>
    <trip id="196" depart="196.00" departSpeed="10.00" from="E1D1" to="C1C0"/>
    <trip id="198" depart="198.00" departSpeed="10.00" from="A3B3" to="B1B0"/>
    <trip id="199" depart="199.00" departSpeed="10.00" from="C4C3" to="B2A2"/>
    <trip id="200" depart="200.00" departSpeed="10.00" from="D4D3" to="C3C4"/>
    <trip id="202" depart="202.00" departSpeed="10.00" from="E1D1" to="D3E3"/>
    <trip id="203" depart="203.00" departSpeed="10.00" from="A2B2" to="B3B4"/>
    <trip id="204" depart="204.00" departSpeed="10.00" from="E3D3" to="B3B4"/>
    <trip id="205" depart="205.00" departSpeed="10.00" from="B0B1" to="C1C0"/>
    <trip id="208" depart="208.00" departSpeed="10.00" from="E3D3" to="C3C4"/>
    <trip id="209" depart="209.00" departSpeed="10.00" from="B0B1" to="D1D0"/>
    <trip id="210" depart="210.00" departSpeed="10.00" from="E3D3" to="B3B4"/>
    <trip id="214" depart="214.00" departSpeed="10.00" from="A3B3" to="B1A1"/>
    <trip id="216" depart="216.00" departSpeed="10.00" from="B0B1" to="B2A2"/>
    <trip id="217" depart="217.00" departSpeed="10.00" from="A3B3" to="D1D0"/>
    <trip id="218" depart="218.00" departSpeed="10.00" from="E3D3" to="B3B4"/>
    <trip id="220" depart="220.00" departSpeed="10.00" from="E2D2" to="C3C4"/>
    <trip id="221" depart="221.00" departSpeed="10.00" from="A1B1" to="D1E1"/>
    <trip id="222" depart="222.00" departSpeed="10.00" from="A3B3" to="B1A1"/>
    <trip id="224" depart="224.00" departSpeed="10.00" from="D4D3" to="B3B4"/>
    <trip id="226" depart="226.00" departSpeed="10.00" from="A1B1" to="D1E1"/>
    <trip id="227" depart="227.00" departSpeed="10.00" from="D4D3" to="D3E3"/>
    <trip id="231" depart="231.00" departSpeed="10.00" from="E2D2" to="B3B4"/>
    <trip id="234" depart="234.00" departSpeed="10.00" from="B0B1" to="C1C0"/>
    <trip id="235" depart="235.00" departSpeed="10.00" from="B0B1" to="D2E2"/>
    <trip id="240" depart="240.00" departSpeed="10.00" from="C0C1" to="B1A1"/>
    <trip id="241" depart="241.00" departSpeed="10.00" from="E3D3" to="B3B4"/>
    <trip id="243" depart="243.00" departSpeed="10.00" from="D0D1" to="D2E2"/>
    <trip id="245" depart="245.00" departSpeed="10.00" from="A1B1" to="C1C0"/>
    <trip id="250" depart="250.00" departSpeed="10.00" from="A1B1" to="B1B0"/>
    <trip id="251" depart="251.00" departSpeed="10.00" from="C4C3" to="B2A2"/>
    <trip id="253" depart="253.00" departSpeed="10.00" from="B0B1" to="D3E3"/>
    <trip id="255" depart="255.00" departSpeed="10.00" from="C4C3" to="D1D0"/>
    <trip id="257" depart="257.00" departSpeed="10.00" from="E2D2" to="B2A2"/>
    <trip id="258" depart="258.00" departSpeed="10.00" from="C0C1" to="D1D0"/>
    <trip id="259" depart="259.00" departSpeed="10.00" from="C0C1" to="D2E2"/>
    <trip id="261" depart="261.00" departSpeed="10.00" from="D4D3" to="D2E2"/>
    <trip id="262" depart="262.00" departSpeed="10.00" from="C0C1" to="D1D0"/>
    <trip id="264" depart="264.00" departSpeed="10.00" from="A2B2" to="B3B4"/>
    <trip id="266" depart="266.00" departSpeed="10.00" from="A1B1" to="C1C0"/>
    <trip id="268" depart="268.00" departSpeed="10.00" from="A2B2" to="D1D0"/>
    <trip id="269" depart="269.00" departSpeed="10.00" from="D4D3" to="C3C4"/>
    <trip id="270" depart="270.00" departSpeed="10.00" from="E3D3" to="C3C4"/>
    <trip id="272" depart="272.00" departSpeed="10.00" from="D4D3" to="B1A1"/>
    <trip id="274" depart="274.00" departSpeed="10.00" from="E1D1" to="B2A2"/>
    <trip id="276" depart="276.00" departSpeed="10.00" from="C4C3" to="C1C0"/>
    <trip id="277" depart="277.00" departSpeed="10.00" from="C4C3" to="D2E2"/>
    <trip id="279" depart="279.00" departSpeed="10.00" from="A2B2" to="D3E3"/>
    <trip id="280" depart="280.00" departSpeed="10.00" from="D4D3" to="B3A3"/>
    <trip id="282" depart="282.00" departSpeed="10.00" from="B0B1" to="D1E1"/>
    <trip id="283" depart="283.00" departSpeed="10.00" from="E2D2" to="D3E3"/>
    <trip id="284" depart="284.00" departSpeed="10.00" from="B0B1" to="D2E2"/>
    <trip id="285" depart="285.00" departSpeed="10.00" from="D0D1" to="D2E2"/>
    <trip id="287" depart="287.00" departSpeed="10.00" from="C0C1" to="D2E2"/>
    <trip id="288" depart="288.00" departSpeed="10.00" from="C0C1" to="B1A1"/>
    <trip id="289" depart="289.00" departSpeed="10.00" from="A3B3" to="D2E2"/>
    <trip id="290" depart="290.00" departSpeed="10.00" from="E2D2" to="C3C4"/>
    <trip id="294" depart="294.00" departSpeed="10.00" from="A1B1" to="D1E1"/>
    <trip id="295" depart="295.00" departSpeed="10.00" from="A2B2" to="B1B0"/>
    <trip id="297" depart="297.00" departSpeed="10.00" from="E1D1" to="D2E2"/>
    <trip id="298" depart="298.00" departSpeed="10.00" from="B0B1" to="B3B4"/>
    <trip id="301" depart="301.00" departSpeed="10.00" from="C0C1" to="C3C4"/>
    <trip id="303" depart="303.00" departSpeed="10.00" from="B0B1" to="B2A2"/>
    <trip id="304" depart="304.00" departSpeed="10.00" from="D4D3" to="B3A3"/>
    <trip id="306" depart="306.00" departSpeed="10.00" from="A3B3" to="B1A1"/>
    <trip id="308" depart="308.00" departSpeed="10.00" from="C0C1" to="D1D0"/>
    <trip id="309" depart="309.00" departSpeed="10.00" from="E1D1" to="B3B4"/>
    <trip id="310" depart="310.00" departSpeed="10.00" from="C4C3" to="D2E2"/>
    <trip id="311" depart="311.00" departSpeed="10.00" from="A2B2" to="B3B4"/>
    <trip id="312" depart="312.00" departSpeed="10.00" from="E1D1" to="B3B4"/>
    <trip id="314" depart="314.00" departSpeed="10.00" from="A2B2" to="B3B4"/>
    <trip id="315" depart="315.00" departSpeed="10.00" from="C0C1" to="B3B4"/>
    <trip id="316" depart="316.00" departSpeed="10.00" from="A3B3" to="C1C0"/>
    <trip id="317" depart="317.00" departSpeed="10.00" from="E2D2" to="D3E3"/>
    <trip id="323" depart="323.00" departSpeed="10.00" from="A3B3" to="B1B0"/>
    <trip id="325" depart="325.00" departSpeed="10.00" from="A3B3" to="B1A1"/>
    <trip id="329" depart="329.00" departSpeed="10.00" from="B4B3" to="B3A3"/>
    <trip id="333" depart="333.00" departSpeed="10.00" from="C4C3" to="D1D0"/>
    <trip id="335" depart="335.00" departSpeed="10.00" from="E1D1" to="D3D4"/>
    <trip id="336" depart="336.00" departSpeed="10.00" from="D4D3" to="C3C4"/>
    <trip id="337" depart="337.00" departSpeed="10.00" from="E2D2" to="D3E3"/>
    <trip id="339" depart="339.00" departSpeed="10.00" from="B4B3" to="B1A1"/>
    <trip id="340" depart="340.00" departSpeed="10.00" from="A3B3" to="B1A1"/>
    <trip id="342" depart="342.00" departSpeed="10.00" from="A1B1" to="C1C0"/>
    <trip id="344" depart="344.00" departSpeed="10.00" from="A1B1" to="D1E1"/>
    <trip id="345" depart="345.00" departSpeed="10.00" from="A3B3" to="D2E2"/>
    <trip id="347" depart="347.00" departSpeed="10.00" from="C0C1" to="D3E3"/>
    <trip id="349" depart="349.00" departSpeed="10.00" from="A3B3" to="B1B0"/>
    <trip id="350" depart="350.00" departSpeed="10.00" from="A3B3" to="B1A1"/>
    <trip id="351" depart="351.00" departSpeed="10.00" from="E1D1" to="B2A2"/>
    <trip id="352" depart="352.00" departSpeed="10.00" from="C4C3" to="B3A3"/>
    <trip id="354" depart="354.00" departSpeed="10.00" from="C4C3" to="B3A3"/>
    <trip id="356" depart="356.00" departSpeed="10.00" from="A1B1" to="D1E1"/>
    <trip id="357" depart="357.00" departSpeed="10.00" from="E2D2" to="D2E2"/>
    <trip id="358" depart="358.00" departSpeed="10.00" from="D4D3" to="D3E3"/>
    <trip id="359" depart="359.00" departSpeed="10.00" from="E3D3" to="C3C4"/>
    <trip id="360" depart="360.00" departSpeed="10.00" from="A3B3" to="C3C4"/>
    <trip id="361" depart="361.00" departSpeed="10.00" from="C0C1" to="D1E1"/>
    <trip id="362" depart="362.00" departSpeed="10.00" from="B4B3" to="B1A1"/>
    <trip id="363" depart="363.00" departSpeed="10.00" from="A3B3" to="B1B0"/>
    <trip id="365" depart="365.00" departSpeed="10.00" from="C4C3" to="B3A3"/>
    <trip id="366" depart="366.00" departSpeed="10.00" from="D4D3" to="C1C0"/>
    <trip id="367" depart="367.00" departSpeed="10.00" from="C0C1" to="B2A2"/>
    <trip id="369" depart="369.00" departSpeed="10.00" from="C0C1" to="B2A2"/>
    <trip id="370" depart="370.00" departSpeed="10.00" from="C0C1" to="C1C0"/>
    <trip id="371" depart="371.00" departSpeed="10.00" from="C0C1" to="D1E1"/>
    <trip id="374" depart="374.00" departSpeed="10.00" from="E1D1" to="B1A1"/>
    <trip id="375" depart="375.00" departSpeed="10.00" from="B0B1" to="D2E2"/>
    <trip id="379" depart="379.00" departSpeed="10.00" from="D0D1" to="D2E2"/>
    <trip id="380" depart="380.00" departSpeed="10.00" from="C4C3" to="B3A3"/>
    <trip id="381" depart="381.00" departSpeed="10.00" from="A2B2" to="B1A1"/>
    <trip id="383" depart="383.00" departSpeed="10.00" from="D4D3" to="D1D0"/>
    <trip id="385" depart="385.00" departSpeed="10.00" from="E3D3" to="B3B4"/>
    <trip id="387" depart="387.00" departSpeed="10.00" from="D0D1" to="D1E1"/>
    <trip id="389" depart="389.00" departSpeed="10.00" from="C0C1" to="B1A1"/>
    <trip id="392" depart="392.00" departSpeed="10.00" from="E2D2" to="B3B4"/>
    <trip id="393" depart="393.00" departSpeed="10.00" from="A3B3" to="B1B0"/>
    <trip id="395" depart="395.00" departSpeed="10.00" from="C0C1" to="B1A1"/>
    <trip id="396" depart="396.00" departSpeed="10.00" from="C4C3" to="B3B4"/>
    <trip id="397" depart="397.00" departSpeed="10.00" from="A1B1" to="C1C0"/>
    <trip id="398" depart="398.00" departSpeed="10.00" from="A2B2" to="B2A2"/>
    <trip id="399" depart="399.00" departSpeed="10.00" from="E1D1" to="C1C0"/>
    <trip id="401" depart="401.00" departSpeed="10.00" from="D4D3" to="D1D0"/>
    <trip id="405" depart="405.00" departSpeed="10.00" from="A2B2" to="B3B4"/>
    <trip id="408" depart="408.00" departSpeed="10.00" from="C0C1" to="D1E1"/>
    <trip id="411" depart="411.00" departSpeed="10.00" from="E3D3" to="D3D4"/>
    <trip id="413" depart="413.00" departSpeed="10.00" from="B0B1" to="C1C0"/>
    <trip id="414" depart="414.00" departSpeed="10.00" from="B0B1" to="C1C0"/>
    <trip id="415" depart="415.00" departSpeed="10.00" from="E3D3" to="B3B4"/>
    <trip id="416" depart="416.00" departSpeed="10.00" from="C4C3" to="B3A3"/>
    <trip id="418" depart="418.00" departSpeed="10.00" from="A3B3" to="B1A1"/>
    <trip id="419" depart="419.00" departSpeed="10.00" from="E1D1" to="D2E2"/>
    <trip id="420" depart="420.00" departSpeed="10.00" from="B4B3" to="B2A2"/>
    <trip id="421" depart="421.00" departSpeed="10.00" from="A2B2" to="D1D0"/>
    <trip id="422" depart="422.00" departSpeed="10.00" from="C4C3" to="D3E3"/>
    <trip id="423" depart="423.00" departSpeed="10.00" from="D4D3" to="C3C4"/>
    <trip id="424" depart="424.00" departSpeed="10.00" from="D0D1" to="D3D4"/>
    <trip id="426" depart="426.00" departSpeed="10.00" from="A2B2" to="B1B0"/>
    <trip id="428" depart="428.00" departSpeed="10.00" from="E3D3" to="C3C4"/>
    <trip id="429" depart="429.00" departSpeed="10.00" from="E1D1" to="D1D0"/>
    <trip id="431" depart="431.00" departSpeed="10.00" from="E3D3" to="B3A3"/>
    <trip id="432" depart="432.00" departSpeed="10.00" from="A2B2" to="B1A1"/>
    <trip id="433" depart="433.00" departSpeed="10.00" from="E1D1" to="D2E2"/>
    <trip id="434" depart="434.00" departSpeed="10.00" from="E2D2" to="D2E2"/>
    <trip id="435" depart="435.00" departSpeed="10.00" from="A3B3" to="B3B4"/>
    <trip id="439" depart="439.00" departSpeed="10.00" from="A1B1" to="B1B0"/>
    <trip id="440" depart="440.00" departSpeed="10.00" from="A3B3" to="B2A2"/>
    <trip id="441" depart="441.00" departSpeed="10.00" from="C4C3" to="B1A1"/>
    <trip id="442" depart="442.00" departSpeed="10.00" from="E1D1" to="C1C0"/>
    <trip id="445" depart="445.00" departSpeed="10.00" from="E2D2" to="B2A2"/>
    <trip id="446" depart="446.00" departSpeed="10.00" from="C4C3" to="C3C4"/>
    <trip id="447" depart="447.00" departSpeed="10.00" from="D4D3" to="C3C4"/>
    <trip id="448" depart="448.00" departSpeed="10.00" from="D4D3" to="B1A1"/>
    <trip id="449" depart="449.00" departSpeed="10.00" from="C4C3" to="C3C4"/>
    <trip id="451" depart="451.00" departSpeed="10.00" from="D4D3" to="B1A1"/>
    <trip id="454" depart="454.00" departSpeed="10.00" from="D4D3" to="B1A1"/>
    <trip id="456" depart="456.00" departSpeed="10.00" from="D0D1" to="D1E1"/>
    <trip id="457" depart="457.00" departSpeed="10.00" from="D4D3" to="C3C4"/>
    <trip id="458" depart="458.00" departSpeed="10.00" from="D4D3" to="B1A1"/>
    <trip id="460" depart="460.00" departSpeed="10.00" from="C0C1" to="D2E2"/>
    <trip id="462" depart="462.00" departSpeed="10.00" from="C4C3" to="B3A3"/>
    <trip id="466" depart="466.00" departSpeed="10.00" from="D4D3" to="B2A2"/>
    <trip id="468" depart="468.00" departSpeed="10.00" from="A1B1" to="D1D0"/>
    <trip id="469" depart="469.00" departSpeed="10.00" from="E2D2" to="D2E2"/>
    <trip id="473" depart="473.00" departSpeed="10.00" from="A3B3" to="D2E2"/>
    <trip id="474" depart="474.00" departSpeed="10.00" from="E2D2" to="B1A1"/>
    <trip id="475" depart="475.00" departSpeed="10.00" from="C0C1" to="D1D0"/>
    <trip id="477" depart="477.00" departSpeed="10.00" from="E3D3" to="B3A3"/>
    <trip id="478" depart="478.00" departSpeed="10.00" from="C0C1" to="D3E3"/>
    <trip id="479" depart="479.00" departSpeed="10.00" from="E2D2" to="D3E3"/>
    <trip id="480" depart="480.00" departSpeed="10.00" from="A2B2" to="D3E3"/>
    <trip id="481" depart="481.00" departSpeed="10.00" from="B0B1" to="B3B4"/>
    <trip id="482" depart="482.00" departSpeed="10.00" from="A3B3" to="D2E2"/>
    <trip id="484" depart="484.00" departSpeed="10.00" from="C0C1" to="C3C4"/>
    <trip id="486" depart="486.00" departSpeed="10.00" from="D4D3" to="B3A3"/>
    <trip id="488" depart="488.00" departSpeed="10.00" from="A2B2" to="D2E2"/>
    <trip id="489" depart="489.00" departSpeed="10.00" from="E1D1" to="C1C0"/>
    <trip id="492" depart="492.00" departSpeed="10.00" from="D4D3" to="D2E2"/>
    <trip id="493" depart="493.00" departSpeed="10.00" from="C0C1" to="B1A1"/>
    <trip id="494" depart="494.00" departSpeed="10.00" from="E1D1" to="D3E3"/>
    <trip id="495" depart="495.00" departSpeed="10.00" from="B0B1" to="D1D0"/>
    <trip id="496" depart="496.00" departSpeed="10.00" from="A2B2" to="D3E3"/>
    <trip id="497" depart="497.00" departSpeed="10.00" from="D4D3" to="B1A1"/>
    <trip id="499" depart="499.00" departSpeed="10.00" from="C0C1" to="D1D0"/>
    <trip id="501" depart="501.00" departSpeed="10.00" from="C0C1" to="D3E3"/>
    <trip id="502" depart="502.00" departSpeed="10.00" from="D0D1" to="D2E2"/>
    <trip id="503" depart="503.00" departSpeed="10.00" from="C4C3" to="D2E2"/>
    <trip id="504" depart="504.00" departSpeed="10.00" from="E1D1" to="C1C0"/>
    <trip id="505" depart="505.00" departSpeed="10.00" from="C0C1" to="B2A2"/>
    <trip id="506" depart="506.00" departSpeed="10.00" from="D0D1" to="D1E1"/>
    <trip id="507" depart="507.00" departSpeed="10.00" from="B4B3" to="B1A1"/>
    <trip id="508" depart="508.00" departSpeed="10.00" from="D4D3" to="D1D0"/>
    <trip id="512" depart="512.00" departSpeed="10.00" from="B0B1" to="C3C4"/>
    <trip id="514" depart="514.00" departSpeed="10.00" from="A3B3" to="B1B0"/>
    <trip id="515" depart="515.00" departSpeed="10.00" from="E1D1" to="B2A2"/>
    <trip id="516" depart="516.00" departSpeed="10.00" from="C4C3" to="D1D0"/>
    <trip id="517" depart="517.00" departSpeed="10.00" from="A3B3" to="B1A1"/>
    <trip id="522" depart="522.00" departSpeed="10.00" from="E1D1" to="D3E3"/>
    <trip id="523" depart="523.00" departSpeed="10.00" from="E2D2" to="D3D4"/>
    <trip id="524" depart="524.00" departSpeed="10.00" from="B0B1" to="D1D0"/>
    <trip id="525" depart="525.00" departSpeed="10.00" from="E2D2" to="B1A1"/>
    <trip id="528" depart="528.00" departSpeed="10.00" from="B4B3" to="B2A2"/>
    <trip id="531" depart="531.00" departSpeed="10.00" from="E1D1" to="B3B4"/>
    <trip id="532" depart="532.00" departSpeed="10.00" from="E1D1" to="C3C4"/>
    <trip id="533" depart="533.00" departSpeed="10.00" from="E2D2" to="C3C4"/>
    <trip id="535" depart="535.00" departSpeed="10.00" from="E3D3" to="C3C4"/>
    <trip id="536" depart="536.00" departSpeed="10.00" from="C4C3" to="D1D0"/>
    <trip id="537" depart="537.00" departSpeed="10.00" from="D4D3" to="B3A3"/>
    <trip id="539" depart="539.00" departSpeed="10.00" from="E3D3" to="C3C4"/>
    <trip id="541" depart="541.00" departSpeed="10.00" from="B0B1" to="B1A1"/>
    <trip id="542" depart="542.00" departSpeed="10.00" from="C4C3" to="C3C4"/>
    <trip id="545" depart="545.00" departSpeed="10.00" from="C0C1" to="C3C4"/>
    <trip id="547" depart="547.00" departSpeed="10.00" from="C0C1" to="D2E2"/>
    <trip id="548" depart="548.00" departSpeed="10.00" from="E1D1" to="C3C4"/>
    <trip id="549" depart="549.00" departSpeed="10.00" from="C0C1" to="B2A2"/>
    <trip id="553" depart="553.00" departSpeed="10.00" from="C0C1" to="D3E3"/>
    <trip id="554" depart="554.00" departSpeed="10.00" from="D4D3" to="B1A1"/>
    <trip id="555" depart="555.00" departSpeed="10.00" from="E2D2" to="D1D0"/>
    <trip id="556" depart="556.00" departSpeed="10.00" from="E2D2" to="B3B4"/>
    <trip id="558" depart="558.00" departSpeed="10.00" from="D0D1" to="D3D4"/>
    <trip id="562" depart="562.00" departSpeed="10.00" from="C0C1" to="B1A1"/>
    <trip id="564" depart="564.00" departSpeed="10.00" from="A3B3" to="C3C4"/>
    <trip id="565" depart="565.00" departSpeed="10.00" from="D0D1" to="D3E3"/>
    <trip id="566" depart="566.00" departSpeed="10.00" from="D0D1" to="D2E2"/>
    <trip id="567" depart="567.00" departSpeed="10.00" from="C4C3" to="B1A1"/>
    <trip id="574" depart="574.00" departSpeed="10.00" from="C0C1" to="D1E1"/>
    <trip id="575" depart="575.00" departSpeed="10.00" from="E2D2" to="D1D0"/>
    <trip id="576" depart="576.00" departSpeed="10.00" from="E1D1" to="B3B4"/>
    <trip id="577" depart="577.00" departSpeed="10.00" from="B0B1" to="B1A1"/>
    <trip id="578" depart="578.00" departSpeed="10.00" from="C4C3" to="B1A1"/>
    <trip id="579" depart="579.00" departSpeed="10.00" from="B0B1" to="C1C0"/>
    <trip id="580" depart="580.00" departSpeed="10.00" from="B4B3" to="B2A2"/>
    <trip id="581" depart="581.00" departSpeed="10.00" from="C0C1" to="D3E3"/>
    <trip id="582" depart="582.00" departSpeed="10.00" from="C4C3" to="D1D0"/>
    <trip id="585" depart="585.00" departSpeed="10.00" from="E1D1" to="D1D0"/>
    <trip id="586" depart="586.00" departSpeed="10.00" from="E3D3" to="C3C4"/>
    <trip id="588" depart="588.00" departSpeed="10.00" from="A2B2" to="C1C0"/>
    <trip id="590" depart="590.00" departSpeed="10.00" from="B4B3" to="B3A3"/>
    <trip id="591" depart="591.00" departSpeed="10.00" from="D0D1" to="D3D4"/>
    <trip id="592" depart="592.00" departSpeed="10.00" from="B0B1" to="C3C4"/>
    <trip id="594" depart="594.00" departSpeed="10.00" from="C0C1" to="D1D0"/>
    <trip id="595" depart="595.00" departSpeed="10.00" from="E2D2" to="D3D4"/>
    <trip id="596" depart="596.00" departSpeed="10.00" from="C4C3" to="B3A3"/>
    <trip id="597" depart="597.00" departSpeed="10.00" from="E1D1" to="D3D4"/>
    <trip id="600" depart="600.00" departSpeed="10.00" from="C4C3" to="B3B4"/>
    <trip id="602" depart="602.00" departSpeed="10.00" from="B0B1" to="D1E1"/>
    <trip id="603" depart="603.00" departSpeed="10.00" from="A2B2" to="B1B0"/>
    <trip id="605" depart="605.00" departSpeed="10.00" from="C0C1" to="B3B4"/>
    <trip id="606" depart="606.00" departSpeed="10.00" from="E2D2" to="B1A1"/>
    <trip id="607" depart="607.00" departSpeed="10.00" from="E2D2" to="B2A2"/>
    <trip id="608" depart="608.00" departSpeed="10.00" from="B0B1" to="C1C0"/>